The-Odyssey
奥德赛
The Odyssey
奥德赛
Preface to First Edition
第一版序言
Preface to Second Edition
第二版序言
BOOK I THE GODS IN COUNCIL—MIVERVA’S VISIT TO ITHACA—THE CHALLENGE FROM TELEMACHUS TO THE SUITORS.
第一卷《众神会议》——米维尔瓦对伊萨卡的访问——忒勒马科斯对追求者的挑战。
BOOK II ASSEMBLY OF THE PEOPLE OF ITHACA—SPEECHES OF TELEMACHUS AND OF THE SUITORS—TELEMACHUS MAKES HIS PREPARATIONS AND STARTS FOR PYLOS WITH MINERVA DISGUISED AS MENTOR.
第二卷 伊萨卡人民大会——特勒马科斯和求婚者的演讲——特勒马科斯做好了准备，并在密涅瓦伪装成导师的情况下开始前往皮洛斯。
BOOK III TELEMACHUS VISITS NESTOR AT PYLOS.
第三卷 忒勒马科斯在皮洛斯拜访内斯特。
BOOK IV THE VISIT TO KING MENELAUS, WHO TELLS HIS STORY—MEANWHILE THE SUITORS IN ITHACA PLOT AGAINST TELEMACHUS.
第四卷 拜访国王墨涅拉俄斯，他讲述了他的故事——与此同时，伊萨卡的求婚者密谋反对忒勒马科斯。
BOOK V CALYPSO—ULYSSES REACHES SCHERIA ON A RAFT.
第五卷卡利普索——尤利西斯乘木筏到达谢里亚。
BOOK VI THE MEETING BETWEEN NAUSICAA AND ULYSSES.
第六卷《风之谷》与《尤利西斯》的相遇。
BOOK VII RECEPTION OF ULYSSES AT THE PALACE OF KING ALCINOUS.
第七卷 尤利西斯在阿尔西努斯国王宫殿的接待。
BOOK VIII BANQUET IN THE HOUSE OF ALCINOUS—THE GAMES.
第八卷阿尔西努斯之家的宴会——游戏。
BOOK IX ULYSSES DECLARES HIMSELF AND BEGINS HIS STORY—-THE CICONS, LOTOPHAGI, AND CYCLOPES.
第九卷《尤利西斯》宣告了自己并开始了他的故事——西孔斯、洛托法吉和独眼巨人。
BOOK X AEOLUS, THE LAESTRYGONES, CIRCE.
书X 风神，LAESTRYGONES，瑟茜。
BOOK XI THE VISIT TO THE DEAD.
第十一卷《探访死者》。
BOOK XII THE SIRENS, SCYLLA AND CHARYBDIS, THE CATTLE OF THE SUN.
第十二卷 塞壬、斯库拉和卡律布狄斯，太阳之牛。
BOOK XIII ULYSSES LEAVES SCHERIA AND RETURNS TO ITHACA.
第十三卷《尤利西斯》离开谢里亚并返回伊萨卡。
BOOK XIV ULYSSES IN THE HUT WITH EUMAEUS.
第十四卷 尤利西斯与尤迈乌斯在小屋里。
BOOK XV MINERVA SUMMONS TELEMACHUS FROM LACEDAEMON—HE MEETS WITH THEOCLYMENUS AT PYLOS AND BRINGS HIM TO ITHACA—ON LANDING HE GOES TO THE HUT OF EUMAEUS.
第十五卷密涅瓦从斯代蒙召唤忒勒马科斯——他在皮洛斯与神奥克利门斯会面，并把他带到伊萨卡——登陆后他去了尤迈乌斯的小屋。
BOOK XVI ULYSSES REVEALS HIMSELF TO TELEMACHUS.
第十六卷《尤利西斯》向忒勒马科斯揭示了自己。
BOOK XVII TELEMACHUS AND HIS MOTHER MEET—ULYSSES AND EUMAEUS COME DOWN TO THE TOWN, AND ULYSSES IS INSULTED BY MELANTHIUS—HE IS RECOGNISED BY THE DOG ARGOS—HE IS INSULTED AND PRESENTLY STRUCK BY ANTINOUS WITH A STOOL—PENELOPE DESIRES THAT HE SHALL BE SENT TO HER.
第十七卷 忒勒马科斯和他的母亲相遇——尤利西斯和尤迈尤斯来到镇上，尤利西斯受到梅兰修斯的侮辱——他被狗阿尔戈斯认出了——他受到侮辱，不久就被安提诺斯用凳子击打——佩内洛普希望他受到侮辱发送给她。
BOOK XVIII THE FIGHT WITH IRUS—ULYSSES WARNS AMPHINOMUS—PENELOPE GETS PRESENTS FROM THE SUITORS—THE BRAZIERS—ULYSSES REBUKES EURYMACHUS.
第十八卷 与伊鲁斯的战斗——尤利西斯警告安菲诺姆斯——佩内洛普从追求者——火盆人那里得到礼物——尤利西斯斥责欧律马科斯。
BOOK XIX TELEMACHUS AND ULYSSES REMOVE THE ARMOUR—ULYSSES INTERVIEWS PENELOPE—EURYCLEA WASHES HIS FEET AND RECOGNISES THE SCAR ON HIS LEG—PENELOPE TELLS HER DREAM TO ULYSSES.
第十九卷 忒勒马科斯和尤利西斯卸下铠甲——尤利西斯采访佩内洛普——尤里克莉亚洗脚并认出腿上的伤疤——佩内洛普向尤利西斯讲述她的梦。
BOOK XX ULYSSES CANNOT SLEEP—PENELOPE’S PRAYER TO DIANA—THE TWO SIGNS FROM HEAVEN—EUMAEUS AND PHILOETIUS ARRIVE—THE SUITORS DINE—CTESIPPUS THROWS AN OX’S FOOT AT ULYSSES—THEOCLYMENUS FORETELLS DISASTER AND LEAVES THE HOUSE.
第二十卷 尤利西斯睡不着——佩内洛普对戴安娜的祈祷——天国的两个征兆——尤迈乌斯和斐洛提乌斯到来——求婚者进餐——克特西普斯向尤利西斯踢牛脚——泰克利蒙预言灾难并离开家。
BOOK XXI THE TRIAL OF THE AXES, DURING WHICH ULYSSES REVEALS HIMSELF TO EUMAEUS AND PHILOETIUS
第二十一卷《斧头的审判》，在此期间尤利西斯向欧迈乌斯和斐洛提乌斯展示了自己的身份
BOOK XXII THE KILLING OF THE SUITORS—THE MAIDS WHO HAVE MISCONDUCTED THEMSELVES ARE MADE TO CLEANSE THE CLOISTERS AND ARE THEN HANGED.
第二十二卷 求婚者被杀——行为不端的女仆被强迫去清理修道院，然后被绞死。
BOOK XXIII PENELOPE EVENTUALLY RECOGNISES HER HUSBAND—EARLY IN THE MORNING ULYSSES, TELEMACHUS, EUMAEUS, AND PHILOETIUS LEAVE THE TOWN.
第二十三卷佩内洛普最终认出了她的丈夫——清晨，尤利西斯、忒勒马科斯、尤迈乌斯和菲洛提乌斯离开了小镇。
BOOK XXIV THE GHOSTS OF THE SUITORS IN HADES—ULYSSES AND HIS MEN GO TO THE HOUSE OF LAERTES—THE PEOPLE OF ITHACA COME OUT TO ATTACK ULYSSES, BUT MINERVA CONCLUDES A PEACE.
第二十四卷 哈迪斯求婚者的鬼魂——尤利西斯和他的部下前往莱尔提斯之家——伊萨卡的人们出来攻击尤利西斯，但密涅瓦缔结了和平。
Footnotes
脚注

The Odyssey
奥德赛

By Homer (Circa 700 BC)
作者：荷马（约公元前 700 年）

Translated by Samuel Butler
塞缪尔·巴特勒译

Preface to First Edition
第一版序言

This translation is intended to supplement a work entitled ‘The Authoress of the Odyssey’, which I published in 1897. I could not give the whole ‘Odyssey’ in that book without making it unwieldy, I therefore epitomised my translation, which was already completed and which I now publish in full.
此译本旨在补充我于 1897 年出版的《奥德赛》的女作者。我无法在这本书中完整地呈现《奥德赛》而不使其变得笨拙，因此我概括了我的翻译，该翻译已经完成我现在将其全文发布。

I shall not here argue the two main points dealt with in the work just mentioned; I have nothing either to add to, or to withdraw from, what I have there written. The points in question are:
我不会在这里争论刚才提到的工作中涉及的两个要点；我对我所写的内容没有任何补充或删除。问题点是：

(1) that the ‘Odyssey’ was written entirely at, and drawn entirely from, the place now called Trapani on the West Coast of Sicily, alike as regards the Phaeacian and the Ithaca scenes; while the voyages of Ulysses, when once he is within easy reach of Sicily, solve themselves into a periplus of the island, practically from Trapani back to Trapani, via the Lipari islands, the Straits of Messina, and the island of Pantellaria;
(1) 《奥德赛》完全是在西西里岛西海岸现称为特拉帕尼的地方写成并取材的，与费埃西亚和伊萨卡的场景相似；而尤利西斯的航行，一旦他可以轻松到达西西里岛，就解决了该岛的边缘，实际上是从特拉帕尼回到特拉帕尼，途经利帕里群岛、墨西拿海峡和潘特拉里亚岛。

(2) That the poem was entirely written by a very young woman, who lived at the place now called Trapani, and introduced herself into her work under the name of Nausicaa.
(2) 这首诗完全是由一位非常年轻的女士写的，她住在现在称为特拉帕尼的地方，并以娜乌西卡的名字介绍自己进入她的作品。

The main arguments on which I base the first of these somewhat startling contentions, have been prominently and repeatedly before the English and Italian public ever since they appeared (without rejoinder) in the ‘Athenaeum’ for January 30 and February 20, 1892. Both contentions were urged (also without rejoinder) in the Johnian ‘Eagle’ for the Lent and October terms of the same year. Nothing to which I should reply has reached me from any quarter, and knowing how anxiously I have endeavoured to learn the existence of any flaws in my argument, I begin to feel some confidence that, did such flaws exist, I should have heard, at any rate about some of them, before now. Without, therefore, for a moment pretending to think that scholars generally acquiesce in my conclusions, I shall act as thinking them little likely so to gainsay me as that it will be incumbent upon me to reply, and shall confine myself to translating the ‘Odyssey’ for English readers, with such notes as I think will be found useful. Among these I would especially call attention to one on xxii. 465-473 which Lord Grimthorpe has kindly allowed me to make public.
自从 1892 年 1 月 30 日和 2 月 20 日出现在“雅典娜神庙”（没有反驳）以来，我提出的第一个有点令人吃惊的论点的主要论点就一直在英国和意大利公众面前反复出现。在同年的四旬期和十月期间，约翰尼“鹰”中敦促（也没有反驳）。我从任何方面都没有收到任何我应该答复的内容，并且知道我是多么焦急地努力了解我的论点中是否存在任何缺陷，我开始感到有一些信心，如果存在这样的缺陷，我应该在在此之前，对其中一些有何评价？因此，暂时不要假装认为学者们普遍默许我的结论，我会表现得认为他们不太可能反驳我，因为我有责任做出答复，并且将仅限于翻译《奥德赛》对于英语读者来说，带有我认为有用的注释。其中我要特别提请注意 xxii 上的一项。 465-473，格里姆索普勋爵仁慈地允许我将其公开。

I have repeated several of the illustrations used in ‘The Authoress of the Odyssey’, and have added two which I hope may bring the outer court of Ulysses’ house more vividly before the reader. I should like to explain that the presence of a man and a dog in one illustration is accidental, and was not observed by me till I developed the negative. In an appendix I have also reprinted the paragraphs explanatory of the plan of Ulysses’ house, together with the plan itself. The reader is recommended to study this plan with some attention.
我重复了《奥德赛的女作者》中使用的几幅插图，并添加了两幅，希望能让读者更生动地看到尤利西斯宅邸的外院。我想解释一下，一张插图中出现的一个人和一只狗是偶然的，直到我拍出底片后我才注意到。在附录中，我还转载了解释尤利西斯之家平面图的段落以及平面图本身。建议读者认真研究该计划。

In the preface to my translation of the ‘Iliad’ I have given my views as to the main principles by which a translator should be guided, and need not repeat them here, beyond pointing out that the initial liberty of translating poetry into prose involves the continual taking of more or less liberty throughout the translation; for much that is right in poetry is wrong in prose, and the exigencies of readable prose are the first things to be considered in a prose translation. That the reader, however, may see how far I have departed from strict construe, I will print here Messrs. Butcher and Lang’s translation of the sixty lines or so of the ‘Odyssey.’ Their translation runs:
在我翻译《伊利亚特》的序言中，我已就译者应该遵循的主要原则提出了我的看法，这里无需重复，除了指出将诗歌翻译成散文的最初自由涉及到在整个翻译过程中不断采取或多或少的自由；因为诗歌中的很多正确的东西在散文中都是错误的，而可读散文的迫切需要是散文翻译中首先要考虑的事情。然而，为了读者可能会看到我偏离了严格的解释有多远，我将在这里打印布彻和朗先生对《奥德赛》六十行左右的翻译。他们的翻译如下：

Tell me, Muse, of that man, so ready at need, who wandered far and wide, after he had sacked the sacred citadel of Troy, and many were the men whose towns he saw and whose mind he learnt, yea, and many the woes he suffered in his heart on the deep, striving to win his own life and the return of his company. Nay, but even so he saved not his company, though he desired it sore. For through the blindness of their own hearts they perished, fools, who devoured the oxen of Helios Hyperion: but the god took from them their day of returning. Of these things, goddess, daughter of Zeus, whencesoever thou hast heard thereof, declare thou even unto us.
缪斯，告诉我那个人，他在需要时随时准备着，在洗劫了神圣的特洛伊城堡后，他四处流浪，他看到了许多城镇，了解了他们的思想，是的，还有许多人他内心深处承受着苦难，努力争取自己的生命和公司的回报。不，但即便如此，他也没有拯救他的公司，尽管他非常渴望它。因为他们愚昧无知，吃了赫利俄斯海伯利安的牛，结果因为自己内心的盲目而灭亡了：但是神却夺走了他们归来的日子。关于这些事情，女神，宙斯的女儿，无论您何时听说过这些事情，请向我们宣告。

Now all the rest, as many as fled from sheer destruction, were at home, and had escaped both war and sea, but Odysseus only, craving for his wife and for his homeward path, the lady nymph Calypso held, that fair goddess, in her hollow caves, longing to have him for her lord. But when now the year had come in the courses of the seasons, wherein the gods had ordained that he should return home to Ithaca, not even there was he quit of labours, not even among his own; but all the gods had pity on him save Poseidon, who raged continually against godlike Odysseus, till he came to his own country. Howbeit Poseidon had now departed for the distant Ethiopians, the Ethiopians that are sundered in twain, the uttermost of men, abiding some where Hyperion sinks and some where he rises. There he looked to receive his hecatomb of bulls and rams, there he made merry sitting at the feast, but the other gods were gathered in the halls of Olympian Zeus. Then among them the father of men and gods began to speak, for he bethought him in his heart of noble Aegisthus, whom the son of Agamemnon, far-famed Orestes, slew. Thinking upon him he spake out among the Immortals:
现在，所有其他人，无论是逃离彻底毁灭的人，都在家里，逃离了战争和大海，但只有奥德修斯渴望他的妻子和回家的道路，女神卡吕普索抓住了那位美丽的女神，在她空洞的洞穴，渴望他成为她的主人。然而，当一年又到了，诸神已命定他要返回伊萨卡的家时，他却没有放弃自己的劳动，甚至连他自己的劳动也没有放弃。但除了波塞冬之外，诸神都怜悯他，波塞冬不断地对神圣的奥德修斯发怒，直到他回到自己的祖国。然而波塞冬现在已经启程前往遥远的埃塞俄比亚人，埃塞俄比亚人被分成两半，是人类的极限，有些人住在海伯利安沉没的地方，有些人住在他升起的地方。他在那里期待着接收他的公牛和公羊的大屠杀，在那里他坐在宴会上欢乐，但其他神都聚集在奥林匹亚宙斯的大厅里。然后，人类和众神的父亲开始在他们中间说话，因为他心中想起了高贵的埃吉斯托斯，他是阿伽门农的儿子，著名的俄瑞斯忒斯杀死的。他一边想着他，一边在众仙中说道：

‘Lo you now, how vainly mortal men do blame the gods! For of us they say comes evil, whereas they even of themselves, through the blindness of their own hearts, have sorrows beyond that which is ordained. Even as of late Aegisthus, beyond that which was ordained, took to him the wedded wife of the son of Atreus, and killed her lord on his return, and that with sheer doom before his eyes, since we had warned him by the embassy of Hermes the keen-sighted, the slayer of Argos, that he should neither kill the man, nor woo his wife. For the son of Atreus shall be avenged at the hand of Orestes, so soon as he shall come to man’s estate and long for his own country. So spake Hermes, yet he prevailed not on the heart of Aegisthus, for all his good will; but now hath he paid one price for all.’
‘瞧，凡人责备众神是多么徒劳啊！因为他们说邪恶来自我们，而他们自己，由于自己内心的盲目，也有超出注定的悲伤。甚至到了晚期，埃吉斯托斯超越了预定的范围，娶了阿特柔斯之子的已婚妻子，并在他回来时杀死了她的主人，这在他眼前带来了纯粹的厄运，因为我们已经通过大使馆警告过他赫尔墨斯是目光敏锐的阿尔戈斯杀手，他既不应该杀死阿尔戈斯，也不应该向他的妻子求爱。因为阿特柔斯的儿子一旦来到人类的土地并渴望自己的国家，他就会在俄瑞斯忒斯的手中报仇。赫耳墨斯如此说道，但尽管埃吉斯托斯心怀善意，他却未能打动他的心。但现在他为这一切付出了同一个代价。

And the goddess, grey-eyed Athene, answered him, saying: ‘O father, our father Cronides, throned in the highest; that man assuredly lies in a death that is his due; so perish likewise all who work such deeds! But my heart is rent for wise Odysseus, the hapless one, who far from his friends this long while suffereth affliction in a sea-girt isle, where is the navel of the sea, a woodland isle, and therein a goddess hath her habitation, the daughter of the wizard Atlas, who knows the depths of every sea, and himself upholds the tall pillars which keep earth and sky asunder. His daughter it is that holds the hapless man in sorrow: and ever with soft and guileful tales she is wooing him to forgetfulness of Ithaca. But Odysseus yearning to see if it were but the smoke leap upwards from his own land, hath a desire to die. As for thee, thine heart regardeth it not at all, Olympian! What! Did not Odysseus by the ships of the Argives make thee free offering of sacrifice in the wide Trojan land? Wherefore wast thou then so wroth with him, O Zeus?’
灰眼睛的女神雅典娜回答他说：‘父亲啊，我们的父亲克罗尼德斯，坐在至高无上的宝座上；这个人确实已经死了，这是他应得的；所有从事此类行为的人都同样灭亡！但我的心为聪明的奥德修斯而伤痛，这个不幸的人，他远离他的朋友这么长时间，在一座环海小岛上受苦，那里是大海的肚脐，一座林地小岛，其中有一位女神居住着，巫师阿特拉斯的女儿，他知道每片海洋的深度，而他本人则支撑着分隔大地和天空的高大柱子。正是他的女儿让这个不幸的男人陷入悲伤：她总是用温柔而狡猾的故事吸引他忘记伊萨卡。但奥德修斯渴望看看这是否只是从他自己的土地上升起的烟雾，他一心想死。至于你，你的心根本不关心它，奥林匹斯山！什么！奥德修斯不是乘着阿尔戈斯人的船，让你在广阔的特洛伊土地上免费献祭吗？宙斯啊，你为何对他如此愤怒？

The ‘Odyssey’ (as every one knows) abounds in passages borrowed from the ‘Iliad”; I had wished to print these in a slightly different type, with marginal references to the ‘Iliad,’ and had marked them to this end in my MS. I found, however, that the translation would be thus hopelessly scholasticised, and abandoned my intention. I would nevertheless urge on those who have the management of our University presses, that they would render a great service to students if they would publish a Greek text of the ‘Odyssey’ with the Iliadic passages printed in a different type, and with marginal references. I have given the British Museum a copy of the ‘Odyssey’ with the Iliadic passages underlined and referred to in MS.; I have also given an ‘Iliad’ marked with all the Odyssean passages, and their references; but copies of both the ‘Iliad’ and ‘Odyssey’ so marked ought to be within easy reach of all students.
《奥德赛》（众所周知）有很多从《伊利亚特》借来的段落；我本来希望以稍微不同的字体打印这些内容，并在边缘引用《伊利亚特》，并在我的 MS 中对此进行了标记。然而，我发现这样的翻译将无可救药地学术化，于是放弃了我的初衷。尽管如此，我还是要敦促那些管理我们大学出版社的人，如果他们能出版《奥德赛》的希腊文本，其中伊利亚特段落以不同的字体印刷，并附有旁注，他们将为学生提供巨大的服务。 。我已经向大英博物馆赠送了一份《奥德赛》的副本，其中的《伊利亚特》段落在 MS 中做了下划线和提及；我还提供了一部《伊利亚特》，标有奥德赛的所有段落及其参考文献；但如此标记的《伊利亚特》和《奥德赛》的副本应该是所有学生都可以轻松获得的。

Any one who at the present day discusses the questions that have arisen round the ‘Iliad’ since Wolf’s time, without keeping it well before his reader’s mind that the ‘Odyssey’ was demonstrably written from one single neighbourhood, and hence (even though nothing else pointed to this conclusion) presumably by one person only—that it was written certainly before 750, and in all probability before 1000 B.C.—that the writer of this very early poem was demonstrably familiar with the ‘Iliad’ as we now have it, borrowing as freely from those books whose genuineness has been most impugned, as from those which are admitted to be by Homer—any one who fails to keep these points before his readers, is hardly dealing equitably by them. Any one on the other hand, who will mark his ‘Iliad’ and his ‘Odyssey’ from the copies in the British Museum above referred to, and who will draw the only inference that common sense can draw from the presence of so many identical passages in both poems, will, I believe, find no difficulty in assigning their proper value to a large number of books here and on the Continent that at present enjoy considerable reputations. Furthermore, and this perhaps is an advantage better worth securing, he will find that many puzzles of the ‘Odyssey’ cease to puzzle him on the discovery that they arise from over-saturation with the ‘Iliad.’
当今任何一个人，在讨论自沃尔夫时代以来围绕《伊利亚特》出现的问题时，却没有让读者清楚地意识到，《奥德赛》显然是从一个街区写成的，因此（尽管没有其他任何事情）指出了这个结论）大概只有一个人——它肯定写于公元前 750 年之前，很可能是公元前 1000 年之前——这首早期诗的作者显然熟悉我们现在所拥有的《伊利亚特》，借用就像不受那些真实性最受质疑的书一样，也不受荷马承认的那些书的影响——任何人如果不能在读者面前记住这些观点，就很难公平地对待它们。另一方面，任何人都会从上面提到的大英博物馆的副本中标记他的《伊利亚特》和他的《奥德赛》，并且会从这么多相同段落的存在中得出常识可以得出的唯一推论我相信，在这两首诗中，我们会毫不费力地为这里和欧洲大陆目前享有相当声誉的大量书籍赋予其应有的价值。此外，这也许是一个更值得确保的优势，他会发现《奥德赛》的许多谜题不再让他困惑，因为他发现它们是由于《伊利亚特》的过度饱和而产生的。

Other difficulties will also disappear as soon as the development of the poem in the writer’s mind is understood. I have dealt with this at some length in pp. 251-261 of ‘The Authoress of the Odyssey”. Briefly, the ‘Odyssey’ consists of two distinct poems: (1) The Return of Ulysses, which alone the Muse is asked to sing in the opening lines of the poem. This poem includes the Phaeacian episode, and the account of Ulysses’ adventures as told by himself in Books ix.-xii. It consists of lines 1-79 (roughly) of Book i., of line 28 of Book v., and thence without intermission to the middle of line 187 of Book xiii., at which point the original scheme was abandoned.
一旦理解了这首诗在作者心中的发展，其他困难也会消失。我在《奥德赛的女作者》第 251-261 页中详细讨论了这个问题。简而言之，《奥德赛》由两首不同的诗组成：（1）《尤利西斯归来》，只有缪斯被要求在诗的开头唱出这首诗。这首诗包括费阿克亚情节，以及尤利西斯在第九至十二书中讲述的他自己的冒险经历。它由第一册第 1-79 行（大致）、第五册第 28 行组成，然后不间断地一直到第十三册第 187 行的中间，此时原始方案被放弃。

(2) The story of Penelope and the suitors, with the episode of Telemachus’ voyage to Pylos. This poem begins with line 80 (roughly) of Book i., is continued to the end of Book iv., and not resumed till Ulysses wakes in the middle of line 187, Book xiii., from whence it continues to the end of Book xxiv.
（2）佩内洛普和求婚者的故事，以特勒马科斯前往皮洛斯的航行为插曲。这首诗从第一卷第 80 行（大致）开始，一直延续到第四卷的结尾，直到第十三卷第 187 行中间的《尤利西斯》醒来才继续，从那里继续到第四卷的结尾二十四.

In ‘The Authoress of the Odyssey’, I wrote:
我在《奥德赛的女作家》中写道：

the introduction of lines xi., 115-137 and of line ix., 535, with the writing a new council of the gods at the beginning of Book v., to take the place of the one that was removed to Book i., 1-79, were the only things that were done to give even a semblance of unity to the old scheme and the new, and to conceal the fact that the Muse, after being asked to sing of one subject, spend two-thirds of her time in singing a very different one, with a climax for which no-one has asked her. For roughly the Return occupies eight Books, and Penelope and the Suitors sixteen.
引入第 xi., 115-137 行和第 ix., 535 行，并在第五卷开头编写了一个新的众神议会，以取代第一卷中删除的内容， 1-79，是唯一为了给旧计划和新计划提供表面上的统一而所做的事情，并掩盖了这样一个事实：缪斯在被要求唱一个主题后，花了三分之二的时间是时候唱一首完全不同的歌了，没有人要求她达到高潮。 《归来》大约占据了八本书，《佩内洛普与追求者》占据了十六本书。

I believe this to be substantially correct.
我相信这基本上是正确的。

Lastly, to deal with a very unimportant point, I observe that the Leipsic Teubner edition of 894 makes Books ii. and iii. end with a comma. Stops are things of such far more recent date than the ‘Odyssey,’ that there does not seem much use in adhering to the text in so small a matter; still, from a spirit of mere conservatism, I have preferred to do so. Why [Greek] at the beginnings of Books ii. and viii., and [Greek], at the beginning of Book vii. should have initial capitals in an edition far too careful to admit a supposition of inadvertence, when [Greek] at the beginning of Books vi. and xiii., and [Greek] at the beginning of Book xvii. have no initial capitals, I cannot determine. No other Books of the ‘Odyssey’ have initial capitals except the three mentioned unless the first word of the Book is a proper name.
最后，为了处理一个非常不重​​要的问题，我观察到莱比锡托伊布纳版本的 894 制作了 Books ii。和 iii.以逗号结尾。停顿是比《奥德赛》更新得多的事情，因此在如此小的问题上遵守文本似乎没有多大用处。尽管如此，出于纯粹的保守主义精神，我还是更愿意这样做。为什么 [希腊语] 出现在本书的开头 ii。和 viii.，以及[希腊语]，在第七卷的开头。当[希腊语]出现在第六卷的开头时，版本中应该有首字母大写，过于谨慎，以至于不能承认疏忽的假设。和第十三卷，以及第十七卷开头的[希腊语]。没有初始资本，我无法确定。除上述三本书外，《奥德赛》的其他书籍均没有首字母大写，除非该书的第一个单词是专有名称。

S. BUTLER.
S·巴特勒。

July 25, 1900.
1900 年 7 月 25 日。

Preface to Second Edition
第二版序言

Butler’s Translation of the ‘Odyssey’ appeared originally in 1900, and The Authoress of the Odyssey in 1897. In the preface to the new edition of ‘The Authoress’, which is published simultaneously with this new edition of the Translation, I have given some account of the genesis of the two books.
巴特勒的《奥德赛》译本最初出版于 1900 年，《奥德赛的女作者》最初出版于 1897 年。在与新译本同时出版的新版《女作家》的序言中，我给出了一些讲述了两本书的起源。

The size of the original page has been reduced so as to make both books uniform with Butler’s other works; and, fortunately, it has been possible, by using a smaller type, to get the same number of words into each page, so that the references remain good, and, with the exception of a few minor alterations and rearrangements now to be enumerated so far as they affect the Translation, the new editions are faithful reprints of the original editions, with misprints and obvious errors corrected— no attempt having been made to edit them or to bring them up to date.
原版页面的尺寸已缩小，以使两本书与巴特勒的其他作品保持一致；幸运的是，通过使用较小的字体，可以在每页中输入相同数量的单词，从而使参考文献保持良好状态，并且，除了现在要列举的一些细微的更改和重新排列之外，就其影响译本而言，新版本是原版本的忠实重印，纠正了印刷错误和明显错误——没有尝试对其进行编辑或更新。

(a) The Index has been revised.
(a) 指数已修订。

(b) Owing to the reduction in the size of the page it has been necessary to shorten some of the headlines, and here advantage has been taken of various corrections of and additions to the headlines and shoulder-notes made by Butler in his own copies of the two books.
(b) 由于页面尺寸的缩小，有必要缩短一些标题，这里利用了巴特勒在他自己的副本中对标题和附注所做的各种更正和补充两本书中的。

(c) For the most part each of the illustrations now occupies a page, whereas in the original editions they generally appeared two on the page. It has been necessary to reduce the plan of the House of Ulysses.
(c) 大多数情况下，每个插图现在占据一页，而在原始版本中，它们通常在一页上出现两个。有必要缩小尤利西斯之家的计划。

On page 153 of ‘The Authoress’ Butler says: ‘No great poet would compare his hero to a paunch full of blood and fat, cooking before the fire (xx, 24-28).’ This passage is not given in the abridged Story of the ‘Odyssey’ at the beginning of the book, but in the Translation it occurs in these words:
在《女作家》的第 153 页，巴特勒说道：“没有哪个伟大的诗人会把他的英雄比作一个充满血和脂肪的大肚子，在火前做饭（xx，24-28）。”这段话在删节的故事中没有给出。本书开头提到的《奥德赛》，但在译本中却出现了这样的话：

‘Thus he chided with his heart, and checked it into endurance, but he tossed about as one who turns a paunch full of blood and fat in front of a hot fire, doing it first on one side then on the other, that he may get it cooked as soon as possible; even so did he turn himself about from side to side, thinking all the time how, singlehanded as he was, he should contrive to kill so large a body of men as the wicked suitors.’
于是他内心责备，并检查其忍耐力，但他像一个在热火前翻转充满血和脂肪的肚子的人一样翻来覆去，先在一侧，然后在另一侧，以便他可以尽快煮熟；即便如此，他还是左右翻身，一直在想，尽管他是一个人，他应该如何设法杀死像邪恶的求婚者这样一大群人。

It looks as though in the interval between the publication of ‘The Authoress’ (1897) and of the Translation (1900) Butler had changed his mind; for in the first case the comparison is between Ulysses and a paunch full, etc., and in the second it is between Ulysses and a man who turns a paunch full, etc. The second comparison is perhaps one which a great poet might make.
看起来，在《女作家》（1897年）和《翻译》（1900年）出版之间的间隔里，巴特勒改变了主意。因为在第一种情况下，比较是在《尤利西斯》和一个大肚子之间进行比较，等等，在第二种情况下，是在《尤利西斯》和一个把肚子变满的人之间进行比较。第二种比较也许是一位伟大诗人可能会做出的比较。

In seeing the works through the press I have had the invaluable assistance of Mr. A. T. Bartholomew of the University Library, Cambridge, and of Mr. Donald S. Robertson, Fellow of Trinity College, Cambridge. To both these friends I give my most cordial thanks for the care and skill exercised by them. Mr. Robertson has found time for the labour of checking and correcting all the quotations from and references to the ‘Iliad’ and ‘Odyssey,’ and I believe that it could not have been better performed. It was, I know, a pleasure for him; and it would have been a pleasure also for Butler if he could have known that his work was being shepherded by the son of his old friend, Mr. H. R. Robertson, who more than half a century ago was a fellow-student with him at Cary’s School of Art in Streatham Street, Bloomsbury.
在通过媒体阅读这些作品时，我得到了剑桥大学图书馆的 A. T. Bartholomew 先生和剑桥三一学院研究员 Donald S. Robertson 先生的宝贵帮助。对于这两位朋友的关心和技巧，我致以最诚挚的谢意。罗伯逊先生抽出时间来检查和纠正《伊利亚特》和《奥德赛》的所有引文和参考文献，我相信这是再好不过的了。我知道，这对他来说是一种乐趣。如果巴特勒知道他的工作是由他的老朋友 H. R. 罗伯逊先生的儿子来指导的，他也会很高兴，半个多世纪前，罗伯逊先生是他在卡里学院的同学。艺术学院位于布鲁姆斯伯里斯特里汉姆街。

HENRY FESTING JONES.
亨利·费斯汀·琼斯。

120 MAIDA VALE, W.9.
120 麦达维尔，W.9。

4th December, 1921.
1921 年 12 月 4 日。

BOOK I
第一本书

THE GODS IN COUNCIL—MIVERVA’S VISIT TO ITHACA—THE CHALLENGE FROM TELEMACHUS TO THE SUITORS.
众神会议——米维尔瓦对伊萨卡的访问——忒勒马科斯对追求者的挑战。

Tell me, O Muse, of that ingenious hero who travelled far and wide after he had sacked the famous town of Troy. Many cities did he visit, and many were the nations with whose manners and customs he was acquainted; moreover he suffered much by sea while trying to save his own life and bring his men safely home; but do what he might he could not save his men, for they perished through their own sheer folly in eating the cattle of the Sun-god Hyperion; so the god prevented them from ever reaching home. Tell me, too, about all these things, oh daughter of Jove, from whatsoever source you may know them.
缪斯啊，告诉我那位聪明的英雄在洗劫了著名的特洛伊城后走遍了世界各地。他访问了许多城市，也熟悉了许多国家的风俗习惯。此外，他在海上遭受了很多痛苦，同时试图挽救自己的生命并带他的部下安全回家。但无论他做什么，他都无法拯救他的部下，因为他们因为吃了太阳神亥伯利安的牲畜而丧命。所以上帝阻止他们回家。哦，朱庇特的女儿，也请告诉我所有这些事情，无论你从哪里知道它们。

So now all who escaped death in battle or by shipwreck had got safely home except Ulysses, and he, though he was longing to return to his wife and country, was detained by the goddess Calypso, who had got him into a large cave and wanted to marry him. But as years went by, there came a time when the gods settled that he should go back to Ithaca; even then, however, when he was among his own people, his troubles were not yet over; nevertheless all the gods had now begun to pity him except Neptune, who still persecuted him without ceasing and would not let him get home.
现在，除了尤利西斯之外，所有在战斗或海难中逃脱死亡的人都安全回家了，而他，尽管他渴望回到他的妻子和国家，却被女神卡吕普索拘留，她把他带进一个大山洞并通缉嫁给他。但随着岁月的流逝，有一天，众神决定让他返回伊萨卡。然而，即便如此，当他回到自己的人民身边时，他的麻烦还没有结束。然而现在众神都开始怜悯他，除了海王星，海王星仍然不断地迫害他，不让他回家。

Now Neptune had gone off to the Ethiopians, who are at the world’s end, and lie in two halves, the one looking West and the other East. {1} He had gone there to accept a hecatomb of sheep and oxen, and was enjoying himself at his festival; but the other gods met in the house of Olympian Jove, and the sire of gods and men spoke first. At that moment he was thinking of Aegisthus, who had been killed by Agamemnon’s son Orestes; so he said to the other gods:
现在海王星已经飞向埃塞俄比亚人了，他们位于世界的尽头，分为两半，一个朝西，另一个朝东。 {1} 他去那里接受了一大堆牛羊，并在节日中享受着乐趣；但其他诸神在奥林匹亚朱庇特的殿堂里相遇，众神和人类的祖先首先发言。此刻他想起了被阿伽门农的儿子俄瑞斯忒斯杀死的埃吉斯托斯。于是他对其他诸神说：

‘See now, how men lay blame upon us gods for what is after all nothing but their own folly. Look at Aegisthus; he must needs make love to Agamemnon’s wife unrighteously and then kill Agamemnon, though he knew it would be the death of him; for I sent Mercury to warn him not to do either of these things, inasmuch as Orestes would be sure to take his revenge when he grew up and wanted to return home. Mercury told him this in all good will but he would not listen, and now he has paid for everything in full.’
‘现在看看，人们如何把责任归咎于我们诸神，毕竟这只是他们自己的愚蠢行为。看看埃吉斯托斯；他必须不义地与阿伽门农的妻子做爱，然后杀死阿伽门农，尽管他知道这将是他的死亡；因为我派墨丘利警告他不要做这两件事，因为奥瑞斯忒斯长大后想回家时一定会报仇。水星善意地告诉他这件事，但他不听，现在他已经全额支付了一切。

Then Minerva said, ‘Father, son of Saturn, King of kings, it served Aegisthus right, and so it would any one else who does as he did; but Aegisthus is neither here nor there; it is for Ulysses that my heart bleeds, when I think of his sufferings in that lonely sea-girt island, far away, poor man, from all his friends. It is an island covered with forest, in the very middle of the sea, and a goddess lives there, daughter of the magician Atlas, who looks after the bottom of the ocean, and carries the great columns that keep heaven and earth asunder. This daughter of Atlas has got hold of poor unhappy Ulysses, and keeps trying by every kind of blandishment to make him forget his home, so that he is tired of life, and thinks of nothing but how he may once more see the smoke of his own chimneys. You, sir, take no heed of this, and yet when Ulysses was before Troy did he not propitiate you with many a burnt sacrifice? Why then should you keep on being so angry with him?’
然后密涅瓦说道：“父亲，萨图恩之子，万王之王，这对埃吉斯托斯来说是正确的，任何其他效仿他所做的人也将如此；”但埃吉斯托斯既不在这里也不在那里；当我想到尤利西斯在那个远离他所有朋友的孤寂环海岛屿上所受的苦难时，我的心为尤利西斯流血。这是一座位于大海正中央、森林覆盖的岛屿，那里居住着一位女神，她是魔法师阿特拉斯的女儿，她掌管着海底，掌管着分隔天地的巨柱。阿特拉斯的女儿抓住了可怜的、不幸的尤利西斯，不断地用各种甜言蜜语让他忘记自己的家，以致他厌倦了生活，只想着如何才能再次看到他家的硝烟。自己的烟囱。先生，您对此毫不在意，然而，当尤利西斯在特洛伊之前，他不是用许多燔祭来安抚您吗？那么你为什么还要继续生他的气呢？

And Jove said, ‘My child, what are you talking about? How can I forget Ulysses than whom there is no more capable man on earth, nor more liberal in his offerings to the immortal gods that live in heaven? Bear in mind, however, that Neptune is still furious with Ulysses for having blinded an eye of Polyphemus king of the Cyclopes. Polyphemus is son to Neptune by the nymph Thoosa, daughter to the sea-king Phorcys; therefore though he will not kill Ulysses outright, he torments him by preventing him from getting home. Still, let us lay our heads together and see how we can help him to return; Neptune will then be pacified, for if we are all of a mind he can hardly stand out against us.’
朱庇特说：‘我的孩子，你在说什么？我怎能忘记尤利西斯，世上没有人比他更能干，也没有人比他更慷慨地向天上不朽的众神献祭呢？然而请记住，海王星仍然对尤利西斯感到愤怒，因为尤利西斯弄瞎了独眼巨人波吕斐摩斯的眼睛。波吕斐摩斯是尼普顿与海王福尔库斯的女儿海中仙女图萨所生的儿子。因此，尽管他不会直接杀死尤利西斯，但却阻止他回家来折磨他。不过，让我们一起来思考如何帮助他回归吧；然后海王星就会平静下来，因为如果我们都有头脑，他就很难与我们对抗。

And Minerva said, ‘Father, son of Saturn, King of kings, if, then, the gods now mean that Ulysses should get home, we should first send Mercury to the Ogygian island to tell Calypso that we have made up our minds and that he is to return. In the meantime I will go to Ithaca, to put heart into Ulysses’ son Telemachus; I will embolden him to call the Achaeans in assembly, and speak out to the suitors of his mother Penelope, who persist in eating up any number of his sheep and oxen; I will also conduct him to Sparta and to Pylos, to see if he can hear anything about the return of his dear father—for this will make people speak well of him.’
密涅瓦说：“父亲，萨图恩之子，万王之王，如果众神现在想让尤利西斯回家，我们应该首先派墨丘利到奥吉吉亚岛去告诉卡吕普索我们已经决定了，并且他要回来了。与此同时，我将前往伊萨卡，给尤利西斯的儿子忒勒马科斯以信心。我会鼓励他召集亚该亚人集会，并向他母亲佩内洛普的追求者们大声疾呼，因为他们坚持吃掉他的任何数量的羊和牛；我还要带他去斯巴达和皮洛斯，看看他是否能听到有关他亲爱的父亲回来的消息——因为这会让人们称赞他。

So saying she bound on her glittering golden sandals, imperishable, with which she can fly like the wind over land or sea; she grasped the redoubtable bronze-shod spear, so stout and sturdy and strong, wherewith she quells the ranks of heroes who have displeased her, and down she darted from the topmost summits of Olympus, whereon forthwith she was in Ithaca, at the gateway of Ulysses’ house, disguised as a visitor, Mentes, chief of the Taphians, and she held a bronze spear in her hand. There she found the lordly suitors seated on hides of the oxen which they had killed and eaten, and playing draughts in front of the house. Men-servants and pages were bustling about to wait upon them, some mixing wine with water in the mixing-bowls, some cleaning down the tables with wet sponges and laying them out again, and some cutting up great quantities of meat.
说着，她穿上了那双闪闪发光的金色凉鞋，不朽的，她可以像风一样飞过陆地或海洋；她抓住了那把令人敬畏的青铜长矛，如此粗壮、坚固和强大，她用它平息了那些令她不高兴的英雄队伍，然后她从奥林匹斯山的最高峰冲了下来，很快她就来到了伊萨卡，在伊萨卡，在尤利西斯的家中，伪装成访客的塔菲亚族首领门特斯，她手中握着青铜长矛。在那里，她发现那些高贵的求婚者坐在他们宰杀吃掉的牛皮上，在屋前玩跳棋。男仆和侍童忙着伺候他们，有的在搅拌碗里搅拌酒和水，有的用湿海绵把桌子擦干净再摆好，还有的在切大量的肉。

Telemachus saw her long before any one else did. He was sitting moodily among the suitors thinking about his brave father, and how he would send them flying out of the house, if he were to come to his own again and be honoured as in days gone by. Thus brooding as he sat among them, he caught sight of Minerva and went straight to the gate, for he was vexed that a stranger should be kept waiting for admittance. He took her right hand in his own, and bade her give him her spear. ‘Welcome,’ said he, ‘to our house, and when you have partaken of food you shall tell us what you have come for.’
忒勒马科斯比其他人早看到她。他闷闷不乐地坐在求婚者中间，想着他勇敢的父亲，想着如果他能再次回到自己的家，并像过去那样受到尊重，他将如何把他们飞出房子。当他坐在他们中间沉思时，他看到了密涅瓦，然后径直走向大门，因为他很恼火让一个陌生人等待入场。他握住她的右手，请她把矛交给他。 “欢迎，”他说，“到我们家来，吃完饭后，请告诉我们你来这里的目的。”

He led the way as he spoke, and Minerva followed him. When they were within he took her spear and set it in the spear-stand against a strong bearing-post along with the many other spears of his unhappy father, and he conducted her to a richly decorated seat under which he threw a cloth of damask. There was a footstool also for her feet,{2} and he set another seat near her for himself, away from the suitors, that she might not be annoyed while eating by their noise and insolence, and that he might ask her more freely about his father.
说话间他在前面带路，米勒娃跟在他身后。当他们进来时，他把她的矛和他不幸的父亲的许多其他矛一起放在矛架上，靠在一个坚固的轴承柱上，然后他把她领到一个装饰华丽的座位上，在下面扔了一块锦缎布。 。还有一个供她脚用的脚凳，{2}他在她附近为自己设置了另一个座位，远离求婚者，这样她吃饭时就不会因为他们的噪音和无礼而恼火，而且他可以更自由地向她询问有关的事情。他的父亲。

A maid servant then brought them water in a beautiful golden ewer and poured it into a silver basin for them to wash their hands, and she drew a clean table beside them. An upper servant brought them bread, and offered them many good things of what there was in the house, the carver fetched them plates of all manner of meats and set cups of gold by their side, and a manservant brought them wine and poured it out for them.
然后，一个女仆用一个漂亮的金壶给他们端来水，倒进一个银盆里，让他们洗手，并在他们旁边拉了一张干净的桌子。一个上层仆人给他们带来了面包，并给他们提供了家里所有的许多好东西，雕刻师给他们拿来了各种各样的肉，并在他们旁边放了金杯，一个仆人给他们带来了酒，并倒了酒。对于他们来说。

Then the suitors came in and took their places on the benches and seats. {3} Forthwith men servants poured water over their hands, maids went round with the bread-baskets, pages filled the mixing-bowls with wine and water, and they laid their hands upon the good things that were before them. As soon as they had had enough to eat and drink they wanted music and dancing, which are the crowning embellishments of a banquet, so a servant brought a lyre to Phemius, whom they compelled perforce to sing to them. As soon as he touched his lyre and began to sing Telemachus spoke low to Minerva, with his head close to hers that no man might hear.
然后求婚者进来，在长凳和座位上就座。 {3}男人仆人立即将水倒在他们的手上，女仆提着面包篮走来走去，仆人将酒和水装满搅拌碗，他们把手放在他们面前的好东西上。当他们吃饱喝足后，他们就想要音乐和舞蹈，这是宴会的最重要的装饰，于是一个仆人给菲米乌斯带来了一把七弦琴，他们强迫他唱歌给他们听。当他触碰竖琴并开始唱歌时，特勒马科斯就对密涅瓦低声说话，他的头靠近她的头，没有人能听到。

‘I hope, sir,’ said he, ‘that you will not be offended with what I am going to say. Singing comes cheap to those who do not pay for it, and all this is done at the cost of one whose bones lie rotting in some wilderness or grinding to powder in the surf. If these men were to see my father come back to Ithaca they would pray for longer legs rather than a longer purse, for money would not serve them; but he, alas, has fallen on an ill fate, and even when people do sometimes say that he is coming, we no longer heed them; we shall never see him again. And now, sir, tell me and tell me true, who you are and where you come from. Tell me of your town and parents, what manner of ship you came in, how your crew brought you to Ithaca, and of what nation they declared themselves to be—for you cannot have come by land. Tell me also truly, for I want to know, are you a stranger to this house, or have you been here in my father’s time? In the old days we had many visitors for my father went about much himself.’
“我希望，先生，”他说，“我接下来说的话不会冒犯你。对于那些不付钱的人来说，唱歌是很便宜的，而这一切的代价是一个人的骨头在荒野中腐烂或在海浪中磨成粉末。如果这些人看到我父亲回到伊萨卡，他们会祈祷更长的腿，而不是更长的钱包，因为金钱对他们不起作用；但可惜的是，他命运多舛，甚至当人们有时说他要来时，我们也不再理睬他们。我们再也见不到他了。现在，先生，请诚实地告诉我，你是谁，你来自哪里。告诉我你的城镇和父母的情况，你乘什么船来的，你的船员如何把你带到伊萨卡，以及他们声称自己属于哪个国家——因为你不可能通过陆路来的。请诚实地告诉我，因为我想知道，你是这所房子的陌生人，还是我父亲时代的你来过这里？过去，我们有很多访客，因为我父亲经常自己外出。

And Minerva answered, ‘I will tell you truly and particularly all about it. I am Mentes, son of Anchialus, and I am King of the Taphians. I have come here with my ship and crew, on a voyage to men of a foreign tongue being bound for Temesa {4} with a cargo of iron, and I shall bring back copper. As for my ship, it lies over yonder off the open country away from the town, in the harbour Rheithron {5} under the wooded mountain Neritum. {6} Our fathers were friends before us, as old Laertes will tell you, if you will go and ask him. They say, however, that he never comes to town now, and lives by himself in the country, faring hardly, with an old woman to look after him and get his dinner for him, when he comes in tired from pottering about his vineyard. They told me your father was at home again, and that was why I came, but it seems the gods are still keeping him back, for he is not dead yet not on the mainland. It is more likely he is on some sea-girt island in mid ocean, or a prisoner among savages who are detaining him against his will. I am no prophet, and know very little about omens, but I speak as it is borne in upon me from heaven, and assure you that he will not be away much longer; for he is a man of such resource that even though he were in chains of iron he would find some means of getting home again. But tell me, and tell me true, can Ulysses really have such a fine looking fellow for a son? You are indeed wonderfully like him about the head and eyes, for we were close friends before he set sail for Troy where the flower of all the Argives went also. Since that time we have never either of us seen the other.’
密涅瓦回答说：“我会真实地、特别地告诉你这一切。”我是门特斯，安基亚鲁斯之子，我是塔菲亚人的国王。我带着我的船和船员来到这里，正在一次航行中，带着一批铁船前往特梅萨{4}，我将带回铜。至于我的船，它位于远离城镇的开阔乡村，在树木繁茂的尼里图姆山下的 Rheithron {5} 港口。 {6}我们的父亲在我们之前就是朋友，老莱尔提斯会告诉你，如果你去问他的话。然而，他们说，他现在从不进城，独自生活在乡下，生活艰难，当他因在葡萄园里闲逛而疲惫不堪时，有一位老妇人照顾他并为他准备晚餐。他们告诉我你的父亲又在家了，所以我才来，但诸神似乎仍然阻止他回来，因为他还没死，还没到大陆。更有可能的是，他在大洋中央的某个环海岛屿上，或者是野蛮人中的囚犯，这些野蛮人违背他的意愿拘留了他。我不是先知，对预兆知之甚少，但我所说的是从天上降临到我身上的信息，并向你们保证，他不会离开太久。因为他是一个有资源的人，即使他戴着铁链，他也会找到一些回家的方法。但是请告诉我，实话实说，《尤利西斯》真的能有一个这么漂亮的儿子吗？你的头和眼睛确实非常像他，因为在他启航前往特洛伊之前我们是亲密的朋友，所有阿尔戈斯人的花朵也去了特洛伊。从那时起我们就再也没有见过对方。

‘My mother,’ answered Telemachus, ‘tells me I am son to Ulysses, but it is a wise child that knows his own father. Would that I were son to one who had grown old upon his own estates, for, since you ask me, there is no more ill-starred man under heaven than he who they tell me is my father.’
“我的母亲，”忒勒马科斯回答道，“告诉我，我是尤利西斯的儿子，但这是一个聪明的孩子，他认识自己的父亲。但愿我是一个在自己的庄园里变老的儿子，因为，既然你问我，天下没有比他们告诉我的父亲更倒霉的人了。

And Minerva said, ‘There is no fear of your race dying out yet, while Penelope has such a fine son as you are. But tell me, and tell me true, what is the meaning of all this feasting, and who are these people? What is it all about? Have you some banquet, or is there a wedding in the family—for no one seems to be bringing any provisions of his own? And the guests—how atrociously they are behaving; what riot they make over the whole house; it is enough to disgust any respectable person who comes near them.’
密涅瓦说：“不用担心你们的种族会灭绝，因为佩内洛普有一个像你这样优秀的儿子。”但是请告诉我，老实告诉我，所有这些盛宴的意义是什么？这些人是谁？这是什么一回事呢？你有宴会吗？或者家里有婚礼吗——因为似乎没有人自带任何食物？还有客人——他们的行为多么残暴；他们对整个房子造成了多么大的骚乱？这足以让任何接近他们的受人尊敬的人感到厌恶。

‘Sir,’ said Telemachus, ‘as regards your question, so long as my father was here it was well with us and with the house, but the gods in their displeasure have willed it otherwise, and have hidden him away more closely than mortal man was ever yet hidden. I could have borne it better even though he were dead, if he had fallen with his men before Troy, or had died with friends around him when the days of his fighting were done; for then the Achaeans would have built a mound over his ashes, and I should myself have been heir to his renown; but now the storm-winds have spirited him away we know not whither; he is gone without leaving so much as a trace behind him, and I inherit nothing but dismay. Nor does the matter end simply with grief for the loss of my father; heaven has laid sorrows upon me of yet another kind; for the chiefs from all our islands, Dulichium, Same, and the woodland island of Zacynthus, as also all the principal men of Ithaca itself, are eating up my house under the pretext of paying their court to my mother, who will neither point blank say that she will not marry, {7} nor yet bring matters to an end; so they are making havoc of my estate, and before long will do so also with myself.’
“先生，”忒勒马科斯说道，“至于你的问题，只要我父亲在这里，我们和这座房子就都过得很好，但是众神不高兴，却另有所图，把他藏得比凡人还严密。”人类从未被隐藏过。即使他已经死了，如果他和他的部下一起倒在特洛伊之前，或者当他的战斗结束时和他周围的朋友一起死去，我也能忍受得更好。因为那时，亚该亚人就会在他的骨灰上筑起一座土丘，而我本人也将成为他名声的继承人。但现在狂风把他吹走了，我们不知道他去了哪里。他走了，没有留下任何痕迹，我只继承了沮丧。事情也不仅仅以失去父亲的悲痛而结束。上天又给我带来了另一种悲伤；因为我们所有岛屿的首领，杜利奇乌姆岛、萨姆岛和扎辛苏斯岛的林地，以及伊萨卡岛本身的所有主要人物，都以向我母亲讨好为借口，正在吃掉我的房子，而我母亲也不会直言不讳。说她不会结婚，{7}也不会结束事情；所以他们正在对我的财产造成严重破坏，不久之后我也会这样做。”

‘Is that so?’ exclaimed Minerva, ‘then you do indeed want Ulysses home again. Give him his helmet, shield, and a couple of lances, and if he is the man he was when I first knew him in our house, drinking and making merry, he would soon lay his hands about these rascally suitors, were he to stand once more upon his own threshold. He was then coming from Ephyra, where he had been to beg poison for his arrows from Ilus, son of Mermerus. Ilus feared the ever-living gods and would not give him any, but my father let him have some, for he was very fond of him. If Ulysses is the man he then was these suitors will have a short shrift and a sorry wedding.
“是这样吗？”密涅瓦惊呼道，“那么你确实希望尤利西斯再次回家。把他的头盔、盾牌和几把长矛给他，如果他还是我第一次在我们家里认识他时的那个人，喝酒快乐，如果他站起来，他很快就会对这些无赖的追求者下手。再次踏上自己的门槛。当时他正从埃菲拉过来，在那里他向梅尔梅鲁斯之子伊鲁斯乞讨箭毒。伊卢斯害怕永生的神灵，不肯给他任何东西，但我父亲却给了他一些，因为他非常喜欢他。如果尤利西斯是那个人，那么这些追求者就会受到冷遇，并举行一场遗憾的婚礼。

‘But there! It rests with heaven to determine whether he is to return, and take his revenge in his own house or no; I would, however, urge you to set about trying to get rid of these suitors at once. Take my advice, call the Achaean heroes in assembly to-morrow morning—lay your case before them, and call heaven to bear you witness. Bid the suitors take themselves off, each to his own place, and if your mother’s mind is set on marrying again, let her go back to her father, who will find her a husband and provide her with all the marriage gifts that so dear a daughter may expect. As for yourself, let me prevail upon you to take the best ship you can get, with a crew of twenty men, and go in quest of your father who has so long been missing. Some one may tell you something, or (and people often hear things in this way) some heaven-sent message may direct you. First go to Pylos and ask Nestor; thence go on to Sparta and visit Menelaus, for he got home last of all the Achaeans; if you hear that your father is alive and on his way home, you can put up with the waste these suitors will make for yet another twelve months. If on the other hand you hear of his death, come home at once, celebrate his funeral rites with all due pomp, build a barrow to his memory, and make your mother marry again. Then, having done all this, think it well over in your mind how, by fair means or foul, you may kill these suitors in your own house. You are too old to plead infancy any longer; have you not heard how people are singing Orestes’ praises for having killed his father’s murderer Aegisthus? You are a fine, smart looking fellow; show your mettle, then, and make yourself a name in story. Now, however, I must go back to my ship and to my crew, who will be impatient if I keep them waiting longer; think the matter over for yourself, and remember what I have said to you.’
‘但是就在那里！他是否回来，到自己家里报仇，由天决定。然而，我强烈建议你立即着手摆脱这些追求者。听从我的建议，明天早上召集亚该亚英雄集会——把你的案子摆在他们面前，请上天为你作证。请求婚者各自离开，各就各位，如果你母亲决心再婚，就让她回到她父亲身边，他会为她找到一个丈夫，并为她提供所有结婚礼物。女儿可能会期待。至于你自己，让我说服你乘坐你能找到的最好的船，带着二十名船员，去寻找你失踪已久的父亲。有人可能会告诉你一些事情，或者（人们经常以这种方式听到事情）一些天赐的信息可能会指导你。首先去皮洛斯询问内斯特；然后前往斯巴达拜访墨涅拉俄斯，因为他是所有亚该亚人中最后一个回家的。如果你听说你的父亲还活着，正在回家的路上，你就可以再忍受这些求婚者造成的浪费十二个月了。另一方面，如果你听说他去世了，请立即回家，以应有的盛况庆祝他的葬礼，为他建造一座手推车以纪念他，并让你的母亲再结婚。然后，做完这一切之后，在心里好好想一想，你怎样才能以公平或不正当的手段，在你自己的家里杀死这些追求者。你已经老了，不能再以婴儿期为借口了；你没听说过人们如何歌颂俄瑞斯忒斯杀死了他父亲的凶手埃吉斯托斯吗？你是一个漂亮、聪明的小伙子；那么，展现你的勇气，让自己在故事中出名。 然而，现在我必须回到我的船和我的船员身边，如果我让他们等得更久，他们会不耐烦的；你自己考虑一下这件事，记住我对你说的话。’

‘Sir,’ answered Telemachus, ‘it has been very kind of you to talk to me in this way, as though I were your own son, and I will do all you tell me; I know you want to be getting on with your voyage, but stay a little longer till you have taken a bath and refreshed yourself. I will then give you a present, and you shall go on your way rejoicing; I will give you one of great beauty and value—a keepsake such as only dear friends give to one another.’
“先生，”忒勒马科斯回答道，“您对我这样说话真是太好了，就好像我是您自己的儿子一样，我会做您告诉我的一切；我知道您想继续航行，但请多呆一会儿，直到您洗完澡恢复精神。然后我会给你一份礼物，你就可以高高兴兴地上路了；我会给你一件非常美丽和有价值的东西——一件只有亲爱的朋友才会互相赠送的纪念品。

Minerva answered, ‘Do not try to keep me, for I would be on my way at once. As for any present you may be disposed to make me, keep it till I come again, and I will take it home with me. You shall give me a very good one, and I will give you one of no less value in return.’
密涅瓦回答说：“不要试图留住我，因为我会立即上路。”至于你愿意给我做的任何礼物，请保留它，直到我再来，我会把它带回家。你将给我一件非常好的礼物，我也会给你一件同样有价值的礼物作为回报。

With these words she flew away like a bird into the air, but she had given Telemachus courage, and had made him think more than ever about his father. He felt the change, wondered at it, and knew that the stranger had been a god, so he went straight to where the suitors were sitting.
说完这句话，她像小鸟一样飞向空中，但她给了特勒马科斯勇气，让他比以往任何时候都更加想起他的父亲。他感受到了这种变化，感到惊讶，知道这个陌生人是神，于是他径直走到了求婚者坐的地方。

Phemius was still singing, and his hearers sat rapt in silence as he told the sad tale of the return from Troy, and the ills Minerva had laid upon the Achaeans. Penelope, daughter of Icarius, heard his song from her room upstairs, and came down by the great staircase, not alone, but attended by two of her handmaids. When she reached the suitors she stood by one of the bearing posts that supported the roof of the cloisters {8} with a staid maiden on either side of her. She held a veil, moreover, before her face, and was weeping bitterly.
菲米乌斯仍在歌唱，他的听众全神贯注地安静地坐着，听他讲述从特洛伊回来的悲伤故事，以及密涅瓦对亚该亚人造成的祸害。伊卡里乌斯的女儿佩内洛普在楼上的房间里听到了他的歌声，从大楼梯下来，不是独自一人，而是有两个女仆陪伴。当她到达求婚者时，她站在支撑回廊屋顶的一根支柱旁{8}，她的两侧各有一位稳重的少女。而且，她还用面纱遮住脸，痛哭起来。

‘Phemius,’ she cried, ‘you know many another feat of gods and heroes, such as poets love to celebrate. Sing the suitors some one of these, and let them drink their wine in silence, but cease this sad tale, for it breaks my sorrowful heart, and reminds me of my lost husband whom I mourn ever without ceasing, and whose name was great over all Hellas and middle Argos.’ {9}
“菲米乌斯，”她喊道，“你知道众神和英雄的许多其他壮举，就像诗人喜欢庆祝的那样。为求婚者唱一首这样的歌，让他们静静地喝着酒，但请停止这个悲伤的故事，因为它伤了我悲伤的心，让我想起了我失去的丈夫，我永远不停地哀悼他，他的名字伟大所有希腊和中阿尔戈斯。'{9}

‘Mother,’ answered Telemachus, ‘let the bard sing what he has a mind to; bards do not make the ills they sing of; it is Jove, not they, who makes them, and who sends weal or woe upon mankind according to his own good pleasure. This fellow means no harm by singing the ill-fated return of the Danaans, for people always applaud the latest songs most warmly. Make up your mind to it and bear it; Ulysses is not the only man who never came back from Troy, but many another went down as well as he. Go, then, within the house and busy yourself with your daily duties, your loom, your distaff, and the ordering of your servants; for speech is man’s matter, and mine above all others {10}—for it is I who am master here.’
“母亲，”忒勒马科斯回答道，“让吟游诗人唱他想唱的歌吧；吟游诗人不会制造他们所歌颂的罪恶；创造它们的是朱庇特，而不是他们，并根据自己的意愿给人类带来福祉或灾难。这家伙唱着达南人的不幸归来并无恶意，因为人们总是对最新的歌曲给予最热烈的掌声。下定决心并承受；尤利西斯并不是唯一一个没有从特洛伊回来的人，还有许多人和他一样倒下。那么，到屋里去，忙于你的日常职责，你的织布机，你的纺纱机，以及你的仆人的命令；因为言语是人的事，而我的事高于一切{10}——因为我是这里的主人。

She went wondering back into the house, and laid her son’s saying in her heart. Then, going upstairs with her handmaids into her room, she mourned her dear husband till Minerva shed sweet sleep over her eyes. But the suitors were clamorous throughout the covered cloisters {11}, and prayed each one that he might be her bed fellow.
她疑惑地回到屋里，把儿子的话记在心里。然后，她和女仆一起上楼进入自己的房间，哀悼她亲爱的丈夫，直到米勒娃在她的眼睛上睡着了。但求婚者们在整个有顶棚的回廊里吵闹着{11}，每个人都祈祷他能成为她的同床异梦。

Then Telemachus spoke, ‘Shameless,’ he cried, ‘and insolent suitors, let us feast at our pleasure now, and let there be no brawling, for it is a rare thing to hear a man with such a divine voice as Phemius has; but in the morning meet me in full assembly that I may give you formal notice to depart, and feast at one another’s houses, turn and turn about, at your own cost. If on the other hand you choose to persist in spunging upon one man, heaven help me, but Jove shall reckon with you in full, and when you fall in my father’s house there shall be no man to avenge you.’
然后特勒马科斯说道：“无耻的，”他喊道，“无礼的求婚者们，现在就让我们尽情享受吧，别再吵架了，因为像菲米乌斯这样拥有如此神圣声音的人是很少见的。但早上在全体集会中与我会面，以便我正式通知你们出发，并在彼此的房子里享用一顿丰盛的晚餐，转来转去，费用由你们自己承担。另一方面，如果你选择坚持攻击一个人，上天会帮助我，但天神会完全算计你，当你倒在我父亲的房子里时，将没有人为你报仇。

The suitors bit their lips as they heard him, and marvelled at the boldness of his speech. Then, Antinous, son of Eupeithes, said, ‘The gods seem to have given you lessons in bluster and tall talking; may Jove never grant you to be chief in Ithaca as your father was before you.’
求婚者听了他的话，都咬着嘴唇，惊叹于他说话的大胆。然后，欧佩忒斯的儿子安提诺斯说：“众神似乎给了你咆哮和夸夸其谈的教训；愿天神永远不会让你成为伊萨卡岛的酋长，就像你的父亲在你之前一样。

Telemachus answered, ‘Antinous, do not chide with me, but, god willing, I will be chief too if I can. Is this the worst fate you can think of for me? It is no bad thing to be a chief, for it brings both riches and honour. Still, now that Ulysses is dead there are many great men in Ithaca both old and young, and some other may take the lead among them; nevertheless I will be chief in my own house, and will rule those whom Ulysses has won for me.’
忒勒马科斯回答说：“安提诺斯，别责备我，但是，如果可以的话，上帝愿意，我也愿意当酋长。”这是你能想到的对我来说最糟糕的命运吗？当酋长并不是坏事，因为它能带来财富和荣誉。不过，既然尤利西斯已经去世，伊萨卡岛还有许多年长和年轻的伟人，其中可能还有其他一些人在其中起带头作用。不过，我将成为我自己家族的首领，并统治那些尤利西斯为我赢得的人。

Then Eurymachus, son of Polybus, answered, ‘It rests with heaven to decide who shall be chief among us, but you shall be master in your own house and over your own possessions; no one while there is a man in Ithaca shall do you violence nor rob you. And now, my good fellow, I want to know about this stranger. What country does he come from? Of what family is he, and where is his estate? Has he brought you news about the return of your father, or was he on business of his own? He seemed a well to do man, but he hurried off so suddenly that he was gone in a moment before we could get to know him.’
波吕波斯的儿子欧律马科斯回答说：“我们之中谁为首领是由上天决定的，但你将成为你自己的房屋和财产的主人。当伊萨卡有人的时候，任何人都不会暴力对待你，也不会抢劫你。现在，我的好朋友，我想了解这个陌生人。他来自哪个国家？他是什么家族的人，他的财产在哪里？他给你带来了你父亲回来的消息，还是他有自己的事？他看起来是个很有钱的人，但他走得太突然，我们还没来得及认识他，他就走了。

‘My father is dead and gone,’ answered Telemachus, ‘and even if some rumour reaches me I put no more faith in it now. My mother does indeed sometimes send for a soothsayer and question him, but I give his prophecyings no heed. As for the stranger, he was Mentes, son of Anchialus, chief of the Taphians, an old friend of my father’s.’ But in his heart he knew that it had been the goddess.
“我的父亲已经去世了，”忒勒马科斯回答道，“即使我听到了一些谣言，我现在也不再相信它了。”我母亲有时确实会派人去找占卜者询问他，但我对他的预言不予理睬。至于那个陌生人，他是塔菲亚人首领安基亚鲁斯的儿子门特斯，也是我父亲的老朋友。”但他心里知道那是女神。

The suitors then returned to their singing and dancing until the evening; but when night fell upon their pleasuring they went home to bed each in his own abode. {12} Telemachus’s room was high up in a tower {13} that looked on to the outer court; hither, then, he hied, brooding and full of thought. A good old woman, Euryclea, daughter of Ops, the son of Pisenor, went before him with a couple of blazing torches. Laertes had bought her with his own money when she was quite young; he gave the worth of twenty oxen for her, and shewed as much respect to her in his household as he did to his own wedded wife, but he did not take her to his bed for he feared his wife’s resentment. {14} She it was who now lighted Telemachus to his room, and she loved him better than any of the other women in the house did, for she had nursed him when he was a baby. He opened the door of his bed room and sat down upon the bed; as he took off his shirt {15} he gave it to the good old woman, who folded it tidily up, and hung it for him over a peg by his bed side, after which she went out, pulled the door to by a silver catch, and drew the bolt home by means of the strap. {16} But Telemachus as he lay covered with a woollen fleece kept thinking all night through of his intended voyage and of the counsel that Minerva had given him.
然后求婚者们又继续载歌载舞，直到晚上。夜幕降临，他们高兴极了，便各自回家，各自在自己的住处睡觉。 {12} 忒勒马科斯的房间位于一座塔楼的高处，{13} 俯瞰着外院。于是，他躲到了这里，沉思着，陷入了沉思。一位善良的老妇人，名叫欧律克里亚（Euryclea），是皮塞诺之子奥普斯的女儿，拿着两把炽热的火把走在他前面。当她还很小的时候，雷欧提斯就用自己的钱买下了她。他为她付出了二十头牛的价值，并在家里对她表现出像对自己的妻子一样的尊重，但他没有把她抱到床上，因为他担心妻子会生气。 {14}现在正是她将特勒马科斯引到了他的房间，她比家里其他任何女人都更爱他，因为她在他还是个婴儿时就哺育过他。他打开卧室的门，坐到床上。当他脱下衬衫{15}时，他把它交给了善良的老妇人，老妇人将其折叠整齐，并为他挂在床边的钉子上，然后她出去了，用银子拉着门。抓住，并通过带子将螺栓拉回原位。 {16}但是特勒马科斯躺在床上，盖着羊毛羊毛，整个晚上都在思考他的预定航行以及密涅瓦给他的建议。

BOOK II
第二册

ASSEMBLY OF THE PEOPLE OF ITHACA—SPEECHES OF TELEMACHUS AND OF THE SUITORS—TELEMACHUS MAKES HIS PREPARATIONS AND STARTS FOR PYLOS WITH MINERVA DISGUISED AS MENTOR.
伊萨卡人民集会——特勒马科斯和求婚者的讲话——特勒马科斯做好了准备，并在密涅瓦伪装成导师的情况下开始前往皮洛斯。

Now when the child of morning, rosy-fingered Dawn, appeared Telemachus rose and dressed himself. He bound his sandals on to his comely feet, girded his sword about his shoulder, and left his room looking like an immortal god. He at once sent the criers round to call the people in assembly, so they called them and the people gathered thereon; then, when they were got together, he went to the place of assembly spear in hand—not alone, for his two hounds went with him. Minerva endowed him with a presence of such divine comeliness that all marvelled at him as he went by, and when he took his place in his father’s seat even the oldest councillors made way for him.
现在，当早晨的孩子，玫瑰色手指的黎明出现时，忒勒马科斯站了起来，穿好衣服。他把凉鞋绑在漂亮的脚上，把剑挂在肩上，离开房间时看起来就像一位不朽的神。他立即派传令员去召集民众集会，于是他们召集了他们，民众就聚集到了那里。然后，当他们聚集在一起时，他手持长矛前往集会地点——他并不孤单，因为他的两只猎犬也跟着他。密涅瓦赋予他如此神圣的英俊气质，当他走过时，所有人都对他惊叹不已，当他继承父亲的席位时，即使是最年长的议员也为他让路。

Aegyptius, a man bent double with age, and of infinite experience, was the first to speak. His son Antiphus had gone with Ulysses to Ilius, land of noble steeds, but the savage Cyclops had killed him when they were all shut up in the cave, and had cooked his last dinner for him. {17} He had three sons left, of whom two still worked on their father’s land, while the third, Eurynomus, was one of the suitors; nevertheless their father could not get over the loss of Antiphus, and was still weeping for him when he began his speech.
埃古普提乌斯是第一个说话的人，他是一个随着年龄的增长而弯腰驼背、经验丰富的人。他的儿子安提弗斯和尤利西斯一起去了伊利乌斯，那是高贵骏马的土地，但当他们都被关在山洞里时，野蛮的独眼巨人杀死了他，并为他做了最后的晚餐。 {17}他还剩下三个儿子，其中两个仍在父亲的土地上工作，而第三个，欧律诺莫斯，是追求者之一；然而，他们的父亲无法从失去安提弗斯的悲伤中恢复过来，当他开始演讲时，他仍在为他哭泣。

‘Men of Ithaca,’ he said, ‘hear my words. From the day Ulysses left us there has been no meeting of our councillors until now; who then can it be, whether old or young, that finds it so necessary to convene us? Has he got wind of some host approaching, and does he wish to warn us, or would he speak upon some other matter of public moment? I am sure he is an excellent person, and I hope Jove will grant him his heart’s desire.’
“伊萨卡的人们，”他说，“听我的话。”从尤利西斯离开我们的那天起，我们的议员们就没有再开过会议。那么，到底是谁，无论是老人还是年轻人，觉得有必要召集我们呢？他是否听说有主人正在接近，他是否想警告我们，或者他会谈论其他公共场合的问题吗？我确信他是一个优秀的人，希望天佑能满足他的愿望。

Telemachus took this speech as of good omen and rose at once, for he was bursting with what he had to say. He stood in the middle of the assembly and the good herald Pisenor brought him his staff. Then, turning to Aegyptius, ‘Sir,’ said he, ‘it is I, as you will shortly learn, who have convened you, for it is I who am the most aggrieved. I have not got wind of any host approaching about which I would warn you, nor is there any matter of public moment on which I would speak. My grievance is purely personal, and turns on two great misfortunes which have fallen upon my house. The first of these is the loss of my excellent father, who was chief among all you here present, and was like a father to every one of you; the second is much more serious, and ere long will be the utter ruin of my estate. The sons of all the chief men among you are pestering my mother to marry them against her will. They are afraid to go to her father Icarius, asking him to choose the one he likes best, and to provide marriage gifts for his daughter, but day by day they keep hanging about my father’s house, sacrificing our oxen, sheep, and fat goats for their banquets, and never giving so much as a thought to the quantity of wine they drink. No estate can stand such recklessness; we have now no Ulysses to ward off harm from our doors, and I cannot hold my own against them. I shall never all my days be as good a man as he was, still I would indeed defend myself if I had power to do so, for I cannot stand such treatment any longer; my house is being disgraced and ruined. Have respect, therefore, to your own consciences and to public opinion. Fear, too, the wrath of heaven, lest the gods should be displeased and turn upon you. I pray you by Jove and Themis, who is the beginning and the end of councils, [do not] hold back, my friends, and leave me singlehanded {18}—unless it be that my brave father Ulysses did some wrong to the Achaeans which you would now avenge on me, by aiding and abetting these suitors. Moreover, if I am to be eaten out of house and home at all, I had rather you did the eating yourselves, for I could then take action against you to some purpose, and serve you with notices from house to house till I got paid in full, whereas now I have no remedy.’ {19}
忒勒马科斯认为这是一个好兆头，立刻站了起来，因为他要说的话已经滔滔不绝了。他站在人群中间，好心的传令官皮塞诺给他带来了他的手杖。然后，他转向埃吉普提乌斯，说道：“先生，您很快就会知道，是我召集您来的，因为我是最受委屈的。”我没有收到任何要警告您的主人即将到来的风声，也没有任何公共场合的问题需要我发言。我的不满纯粹是个人的，源于我家遭遇的两次巨大不幸。首先是失去了我优秀的父亲，他是在场所有人中的佼佼者，对你们每个人来说就像父亲一样。第二个要严重得多，不久我的庄园就会彻底毁掉。你们当中所有显赫人物的儿子们都在缠着我母亲，违背她的意愿与他们结婚。他们害怕去见她的父亲伊卡里乌斯，要求他选一个他最喜欢的，并为他的女儿提供结婚礼物，但他们却日复一日地在我父亲的房子里徘徊，牺牲我们的牛、羊和肥山羊。他们在宴会上从来不考虑喝多少酒。没有哪个阶层能够忍受如此鲁莽的行为；我们现在没有《尤利西斯》来抵御来自我们家门的伤害，而我也无法抵御它们。我永远不会像他那样成为一个好人，但如果我有能力的话，我确实会为自己辩护，因为我再也无法忍受这样的待遇了；我的房子正在被羞辱和毁坏。因此，尊重自己的良心和公众舆论。也要惧怕上天的愤怒，以免众神不悦并转向你。 我以朱庇特和忒弥斯的名义祈祷你们，他们是议会的开始和结束，[不要]阻止，我的朋友们，让我独自一人{18}——除非我勇敢的父亲尤利西斯对亚该亚人做了一些错事现在你要通过帮助和教唆这些追求者来向我报仇。而且，如果我要在外面和家里被吃掉，我宁愿你们自己吃，因为这样我就可以为了某种目的对你们采取行动，挨家挨户地通知你们，直到我得到报酬。完全，而现在我没有补救办法。’{19}

With this Telemachus dashed his staff to the ground and burst into tears. Every one was very sorry for him, but they all sat still and no one ventured to make him an angry answer, save only Antinous, who spoke thus:
说完，忒勒马科斯把他的手杖摔在地上，放声大哭。每个人都为他感到难过，但他们都静静地坐着，没有人敢对他做出愤怒的回答，只有安提诺乌斯这样说道：

‘Telemachus, insolent braggart that you are, how dare you try to throw the blame upon us suitors? It is your mother’s fault not ours, for she is a very artful woman. This three years past, and close on four, she had been driving us out of our minds, by encouraging each one of us, and sending him messages without meaning one word of what she says. And then there was that other trick she played us. She set up a great tambour frame in her room, and began to work on an enormous piece of fine needlework. ‘Sweet hearts,’ said she, ‘Ulysses is indeed dead, still do not press me to marry again immediately, wait—for I would not have skill in needlework perish unrecorded—till I have completed a pall for the hero Laertes, to be in readiness against the time when death shall take him. He is very rich, and the women of the place will talk if he is laid out without a pall.’
‘忒勒马科斯，你这个无礼的吹牛大王，你怎么敢把责任归咎于我们这些追求者？这是你母亲的错，不是我们的错，因为她是一个非常狡猾的女人。三年过去了，快四年了，她鼓励我们每个人，给他发信息，而她所说的话却没有任何意义，这让我们失去了理智。然后她又给我们玩了另一个把戏。她在房间里架起了一个巨大的鼓架，开始制作一件巨大的精美针线活。 “亲爱的，”她说，“尤利西斯确实死了，还是不要催促我立即再婚，等一下——等我完成了英雄雷欧提斯的棺材，我就不会无缘无故地死去了。”做好准备，迎接死亡降临的时刻。他非常富有，如果他不蒙着罩子躺着，那地方的女人就会议论纷纷。”

‘This was what she said, and we assented; whereon we could see her working on her great web all day long, but at night she would unpick the stitches again by torchlight. She fooled us in this way for three years and we never found her out, but as time wore on and she was now in her fourth year, one of her maids who knew what she was doing told us, and we caught her in the act of undoing her work, so she had to finish it whether she would or no. The suitors, therefore, make you this answer, that both you and the Achaeans may understand-’Send your mother away, and bid her marry the man of her own and of her father’s choice’; for I do not know what will happen if she goes on plaguing us much longer with the airs she gives herself on the score of the accomplishments Minerva has taught her, and because she is so clever. We never yet heard of such a woman; we know all about Tyro, Alcmena, Mycene, and the famous women of old, but they were nothing to your mother any one of them. It was not fair of her to treat us in that way, and as long as she continues in the mind with which heaven has now endowed her, so long shall we go on eating up your estate; and I do not see why she should change, for she gets all the honour and glory, and it is you who pay for it, not she. Understand, then, that we will not go back to our lands, neither here nor elsewhere, till she has made her choice and married some one or other of us.’
“她是这么说的，我们也同意了；我们可以看到她整天都在织她的大网，但到了晚上，她会在手电筒的光下再次拆线。她就这样愚弄了我们三年，我们一直没有发现她，但随着时间的流逝，她现在已经第四年了，她的一位女仆知道她在做什么，告诉了我们，我们当场抓住了她毁掉她的工作，所以无论她愿不愿意，她都必须完成它。因此，求婚者给你这样的回答，以便你和亚该亚人都能理解——“把你的母亲送走，并吩咐她嫁给她自己和她父亲选择的男人”；因为我不知道如果她继续用她因密涅瓦教给她的成就而表现出的架子来困扰我们更长时间，会发生什么，因为她是如此聪明。我们还从未听说过这样的女人；我们都知道蒂罗、阿尔克梅纳、迈锡尼以及古代著名的女性，但对你母亲来说，她们中的任何一个都算不上什么。她这样对待我们是不公平的，只要她继续保持上天赋予她的头脑，我们就会继续吃掉你的财产；我不明白她为什么要改变，因为她得到了所有的荣誉和荣耀，而为此付出代价的是你，而不是她。那么，请理解，在她做出选择并与我们中的某个人结婚之前，我们不会回到我们的土地，无论是在这里还是其他地方。

Telemachus answered, ‘Antinous, how can I drive the mother who bore me from my father’s house? My father is abroad and we do not know whether he is alive or dead. It will be hard on me if I have to pay Icarius the large sum which I must give him if I insist on sending his daughter back to him. Not only will he deal rigorously with me, but heaven will also punish me; for my mother when she leaves the house will call on the Erinyes to avenge her; besides, it would not be a creditable thing to do, and I will have nothing to say to it. If you choose to take offence at this, leave the house and feast elsewhere at one another’s houses at your own cost turn and turn about. If, on the other hand, you elect to persist in spunging upon one man, heaven help me, but Jove shall reckon with you in full, and when you fall in my father’s house there shall be no man to avenge you.’
忒勒马科斯回答说：“安提诺斯，我怎样才能把生我的母亲赶出我父亲的家呢？”我父亲在国外，我们不知道他是生是死。如果我必须向伊卡里乌斯支付一大笔钱，如果我坚持把他的女儿送回给他，我就必须给他，这对我来说会很困难。他不但要严待我，天还要惩罚我；因为当我母亲离开家时，她会召唤厄里涅斯为她报仇。此外，这不是一件值得尊敬的事情，我对此无话可说。如果你选择对此感到生气，那就离开家，去别人家的其他地方享用一顿美餐，费用由你自己承担。另一方面，如果你选择坚持攻击一个人，上天会帮助我，但天神会完全算计你，当你在我父亲的房子里倒下时，将没有人为你报仇。

As he spoke Jove sent two eagles from the top of the mountain, and they flew on and on with the wind, sailing side by side in their own lordly flight. When they were right over the middle of the assembly they wheeled and circled about, beating the air with their wings and glaring death into the eyes of them that were below; then, fighting fiercely and tearing at one another, they flew off towards the right over the town. The people wondered as they saw them, and asked each other what all this might be; whereon Halitherses, who was the best prophet and reader of omens among them, spoke to them plainly and in all honesty, saying:
说话间，朱庇特从山顶放出了两只老鹰，它们随风飞翔，并肩飞行，雄伟地飞翔。当它们飞到人群中间时，它们盘旋着，用翅膀拍打着空气，用死神般的眼神瞪着下面的人。然后，他们激烈地战斗，互相撕扯，飞向城镇的右侧。人们看到他们都很奇怪，互相询问这到底是怎么回事。哈利瑟斯是他们当中最好的先知和预兆解读者，他坦白而诚实地对他们说道：

‘Hear me, men of Ithaca, and I speak more particularly to the suitors, for I see mischief brewing for them. Ulysses is not going to be away much longer; indeed he is close at hand to deal out death and destruction, not on them alone, but on many another of us who live in Ithaca. Let us then be wise in time, and put a stop to this wickedness before he comes. Let the suitors do so of their own accord; it will be better for them, for I am not prophesying without due knowledge; everything has happened to Ulysses as I foretold when the Argives set out for Troy, and he with them. I said that after going through much hardship and losing all his men he should come home again in the twentieth year and that no one would know him; and now all this is coming true.’
“听我说，伊萨卡的人们，我特别对追求者说话，因为我看到他们正在酝酿恶作剧。尤利西斯不会离开太久了。事实上，他即将带来死亡和毁灭，不仅针对他们，而且针对我们居住在伊萨卡的许多其他人。那么，让我们及时明智地在他到来之前制止这种邪恶行为吧。让追求者自愿这样做；这对他们来说更好，因为我不会在没有适当知识的情况下说预言。一切都发生在尤利西斯身上，正如我在阿尔戈斯人出发前往特洛伊时所预言的那样，而他也和他们在一起。我说他历经千辛万苦，失去了所有的人，二十年后他会再回家，没有人会认识他；现在这一切都将成为现实。”

Eurymachus son of Polybus then said, ‘Go home, old man, and prophesy to your own children, or it may be worse for them. I can read these omens myself much better than you can; birds are always flying about in the sunshine somewhere or other, but they seldom mean anything. Ulysses has died in a far country, and it is a pity you are not dead along with him, instead of prating here about omens and adding fuel to the anger of Telemachus which is fierce enough as it is. I suppose you think he will give you something for your family, but I tell you—and it shall surely be—when an old man like you, who should know better, talks a young one over till he becomes troublesome, in the first place his young friend will only fare so much the worse—he will take nothing by it, for the suitors will prevent this—and in the next, we will lay a heavier fine, sir, upon yourself than you will at all like paying, for it will bear hardly upon you. As for Telemachus, I warn him in the presence of you all to send his mother back to her father, who will find her a husband and provide her with all the marriage gifts so dear a daughter may expect. Till then we shall go on harassing him with our suit; for we fear no man, and care neither for him, with all his fine speeches, nor for any fortune-telling of yours. You may preach as much as you please, but we shall only hate you the more. We shall go back and continue to eat up Telemachus’s estate without paying him, till such time as his mother leaves off tormenting us by keeping us day after day on the tiptoe of expectation, each vying with the other in his suit for a prize of such rare perfection. Besides we cannot go after the other women whom we should marry in due course, but for the way in which she treats us.’
波吕波斯的儿子欧律马科斯说道：“老头子，回家吧，对你自己的孩子们说预言，否则他们的处境可能会更糟。”我自己比你更能解读这些预兆；鸟儿总是在阳光下飞翔在某个地方，但它们很少有任何意义。尤利西斯死在了遥远的国度，遗憾的是你没有和他一起死，而不是在这里喋喋不休地谈论预兆，给特勒马科斯的怒火火上浇油，他本来就够猛烈的。我想你认为他会给你一些东西给你的家人，但我告诉你——而且肯定会的——当一个像你这样的老人，他应该更了解，一开始就劝说一个年轻人，直到他变得麻烦。他年轻的朋友只会遭遇更糟糕的事情——他不会接受任何东西，因为求婚者会阻止这一切——接下来，先生，我们将对你自己处以比你愿意支付的更重的罚款，因为它对你来说几乎没有影响。至于特勒马科斯，我当着你们所有人的面警告他，把他的母亲送回她的父亲身边，她的父亲将为她找到一个丈夫，并为她提供亲爱的女儿所期望的所有结婚礼物。到那时我们将继续用我们的诉讼骚扰他；因为我们不惧怕任何人，也不关心他所有的精彩演讲，也不关心你的任何算命。你可以随心所欲地讲道，但我们只会更加恨你。我们将回去，继续吃掉特勒马科斯的财产，而不付钱给他，直到他的母亲停止折磨我们，日复一日地让我们踮着脚尖等待，每个人都穿着自己的西装，争夺这样的奖品。罕见的完美。此外，我们不能追求其他我们应该在适当的时候结婚的女人，除非她对待我们的方式。

Then Telemachus said, ‘Eurymachus, and you other suitors, I shall say no more, and entreat you no further, for the gods and the people of Ithaca now know my story. Give me, then, a ship and a crew of twenty men to take me hither and thither, and I will go to Sparta and to Pylos in quest of my father who has so long been missing. Some one may tell me something, or (and people often hear things in this way) some heaven-sent message may direct me. If I can hear of him as alive and on his way home I will put up with the waste you suitors will make for yet another twelve months. If on the other hand I hear of his death, I will return at once, celebrate his funeral rites with all due pomp, build a barrow to his memory, and make my mother marry again.’
然后特勒马科斯说：“欧律马科斯，还有你们其他的求婚者，我不再多说，也不再恳求你们，因为伊萨卡的诸神和人民现在都知道我的故事了。”那么，给我一艘船和二十名船员，带我到处走走，我就去斯巴达和皮洛斯寻找失踪已久的父亲。有人可能会告诉我一些事情，或者（人们经常以这种方式听到事情）一些天赐的信息可能会指导我。如果我能听到他还活着并且正在回家的路上，我会再忍受你们追求者们的浪费十二个月。另一方面，如果我听到他去世的消息，我会立即返回，以一切应有的盛况庆祝他的葬礼，为他建造一座手推车以纪念他，并让我的母亲再次结婚。

With these words he sat down, and Mentor {20} who had been a friend of Ulysses, and had been left in charge of everything with full authority over the servants, rose to speak. He, then, plainly and in all honesty addressed them thus:
说完这句话，他坐下来，导师{20}站起来讲话，他曾是尤利西斯的朋友，并被留下负责一切事务，对仆人拥有完全的权力。然后，他坦白而诚实地对他们这样说道：

‘Hear me, men of Ithaca, I hope that you may never have a kind and well-disposed ruler any more, nor one who will govern you equitably; I hope that all your chiefs henceforward may be cruel and unjust, for there is not one of you but has forgotten Ulysses, who ruled you as though he were your father. I am not half so angry with the suitors, for if they choose to do violence in the naughtiness of their hearts, and wager their heads that Ulysses will not return, they can take the high hand and eat up his estate, but as for you others I am shocked at the way in which you all sit still without even trying to stop such scandalous goings on—which you could do if you chose, for you are many and they are few.’
‘听我说，伊萨卡的人们，我希望你们再也不会有一位仁慈和好心的统治者，也不会再有一个公平地统治你们的人；我希望你们所有的首领从此以后都变得残酷和不公正，因为你们中没有一个人忘记了尤利西斯，他像你们的父亲一样统治着你们。我对追求者们一点也不生气，因为如果他们出于内心的顽皮而选择实施暴力，并打赌尤利西斯不会回来，他们可以采取高压手段并吃掉他的财产，但至于你我对你们所有人坐以待毙的方式感到震惊，甚至没有试图阻止这种可耻的事情发生——如果你愿意的话，你可以这么做，因为你们很多，而他们很少。

Leiocritus, son of Evenor, answered him saying, ‘Mentor, what folly is all this, that you should set the people to stay us? It is a hard thing for one man to fight with many about his victuals. Even though Ulysses himself were to set upon us while we are feasting in his house, and do his best to oust us, his wife, who wants him back so very badly, would have small cause for rejoicing, and his blood would be upon his own head if he fought against such great odds. There is no sense in what you have been saying. Now, therefore, do you people go about your business, and let his father’s old friends, Mentor and Halitherses, speed this boy on his journey, if he goes at all—which I do not think he will, for he is more likely to stay where he is till some one comes and tells him something.’
埃弗诺的儿子莱奥克里特斯回答他说：“导师，你竟然派人民来阻止我们，这是多么愚蠢的事情啊？”对于一个人来说，为了自己的食物而与很多人争吵是一件很难的事情。尽管尤利西斯本人会在我们在他家里吃饭的时候袭击我们，并竭尽全力驱逐我们，但他的妻子非常希望他回来，因此没有什么理由高兴，他的血将归在他的身上。如果他与如此巨大的困难进行斗争，他自己的头脑。你所说的毫无意义。因此，现在，你们大家忙自己的事吧，让他父亲的老朋友导师和哈利瑟斯加速这个男孩的旅程，如果他真的去的话——我认为他不会，因为他更有可能呆在原地，直到有人过来告诉他一些事情。

On this he broke up the assembly, and every man went back to his own abode, while the suitors returned to the house of Ulysses.
于是，他解散了集会，每个人都回到了自己的住所，而求婚者则回到了尤利西斯的家。

Then Telemachus went all alone by the sea side, washed his hands in the grey waves, and prayed to Minerva.
然后忒勒马科斯独自走到海边，在灰色的海浪中洗手，并向密涅瓦祈祷。

‘Hear me,’ he cried, ‘you god who visited me yesterday, and bade me sail the seas in search of my father who has so long been missing. I would obey you, but the Achaeans, and more particularly the wicked suitors, are hindering me that I cannot do so.’
“听我说，”他喊道，“上帝啊，昨天拜访了我，命令我出海寻找失踪已久的父亲。我会服从你，但亚该亚人，尤其是邪恶的追求者，正在阻碍我，让我不能这样做。

As he thus prayed, Minerva came close up to him in the likeness and with the voice of Mentor. ‘Telemachus,’ said she, ‘if you are made of the same stuff as your father you will be neither fool nor coward henceforward, for Ulysses never broke his word nor left his work half done. If, then, you take after him, your voyage will not be fruitless, but unless you have the blood of Ulysses and of Penelope in your veins I see no likelihood of your succeeding. Sons are seldom as good men as their fathers; they are generally worse, not better; still, as you are not going to be either fool or coward henceforward, and are not entirely without some share of your father’s wise discernment, I look with hope upon your undertaking. But mind you never make common cause with any of those foolish suitors, for they have neither sense nor virtue, and give no thought to death and to the doom that will shortly fall on one and all of them, so that they shall perish on the same day. As for your voyage, it shall not be long delayed; your father was such an old friend of mine that I will find you a ship, and will come with you myself. Now, however, return home, and go about among the suitors; begin getting provisions ready for your voyage; see everything well stowed, the wine in jars, and the barley meal, which is the staff of life, in leathern bags, while I go round the town and beat up volunteers at once. There are many ships in Ithaca both old and new; I will run my eye over them for you and will choose the best; we will get her ready and will put out to sea without delay.’
当他如此祈祷时，密涅瓦以导师的形象和声音靠近了他。 “忒勒马科斯，”她说，“如果你和你的父亲一样，从今以后你就不再是傻瓜，也不再是胆小鬼，因为尤利西斯从来没有食言，也从来没有半途而废。那么，如果你效仿他，你的航行就不会毫无成果，但除非你的血管里流淌着尤利西斯和佩内洛普的血液，否则我看不出你成功的可能性。儿子们很少像他们的父亲那样好。它们通常更差，而不是更好；不过，既然你今后不会成为傻瓜或胆小鬼，也并非完全没有你父亲的智慧洞察力，所以我对你的事业充满希望。但请注意，你永远不要与那些愚蠢的求婚者达成共同目标，因为他们既没有理智，也没有美德，并且不考虑死亡和不久将降临到他们所有人身上的厄运，因此他们将在最后一刻灭亡。同一天。至于你的航程，不会耽搁太久；你父亲是我的老朋友，我会为你找到一艘船，并亲自和你一起去。然而现在，回家吧，在追求者中间走走吧；开始为您的航行准备物资；看到所有东西都装得很好，罐子里的酒，还有装在皮袋里的大麦粉，这是生活的必需品，而我则绕城一周，立即殴打志愿者。伊萨卡岛有许多新旧船只；我会为你筛选并选择最好的；我们会让她做好准备，并立即出海。”

Thus spoke Minerva daughter of Jove, and Telemachus lost no time in doing as the goddess told him. He went moodily home, and found the suitors flaying goats and singeing pigs in the outer court. Antinous came up to him at once and laughed as he took his hand in his own, saying, ‘Telemachus, my fine fire-eater, bear no more ill blood neither in word nor deed, but eat and drink with us as you used to do. The Achaeans will find you in everything—a ship and a picked crew to boot—so that you can set sail for Pylos at once and get news of your noble father.’
朱庇特的女儿密涅瓦如此说道，忒勒马科斯立即按照女神的吩咐去做。他闷闷不乐地回家，发现求婚者正在外院剥山羊、烧猪。安提诺乌斯立刻走到他面前，笑着握住他的手，说道：“忒勒马科斯，我优秀的食火者，无论是在言语还是行为上，都不要再有恶意了，只要像以前一样和我们一起吃喝吧。”做。亚该亚人会在一切事情上找到你——一艘船和精选的船员——这样你就可以立即启航前往皮洛斯并得到你高贵父亲的消息。

‘Antinous,’ answered Telemachus, ‘I cannot eat in peace, nor take pleasure of any kind with such men as you are. Was it not enough that you should waste so much good property of mine while I was yet a boy? Now that I am older and know more about it, I am also stronger, and whether here among this people, or by going to Pylos, I will do you all the harm I can. I shall go, and my going will not be in vain—though, thanks to you suitors, I have neither ship nor crew of my own, and must be passenger not captain.’
“安提诺斯，”忒勒马科斯回答道，“我不能安心地吃饭，也不能与像你这样的人一起享受任何乐趣。当我还是个孩子的时候，你就浪费了我这么多的好财产，这还不够吗？现在我年纪大了，对此了解得更多，我也更坚强，无论是在这些人中间，还是去皮洛斯，我都会尽我所能地伤害你们。我要去，我的去不会白费——不过，多亏了你们这些追求者，我既没有自己的船，也没有自己的船员，我必须是乘客而不是船长。

As he spoke he snatched his hand from that of Antinous. Meanwhile the others went on getting dinner ready about the buildings, {21} jeering at him tauntingly as they did so.
说话间，他从安提诺斯手中抽出了自己的手。与此同时，其他人继续在建筑物周围准备晚餐，{21} 在这样做时嘲笑他。

‘Telemachus,’ said one youngster, ‘means to be the death of us; I suppose he thinks he can bring friends to help him from Pylos, or again from Sparta, where he seems bent on going. Or will he go to Ephyra as well, for poison to put in our wine and kill us?’
“忒勒马科斯，”一位年轻人说道，“意味着我们的死亡；我想他认为他可以从皮洛斯带朋友来帮助他，或者再从斯巴达带朋友来帮助他，他似乎决心要去那里。或者他也会去艾菲拉，在我们的酒里放毒药来杀死我们？

Another said, ‘Perhaps if Telemachus goes on board ship, he will be like his father and perish far from his friends. In this case we should have plenty to do, for we could then divide up his property amongst us: as for the house we can let his mother and the man who marries her have that.’
另一个人说：“也许如果忒勒马科斯上了船，他就会像他的父亲一样，远离他的朋友而灭亡。”在这种情况下，我们应该有很多事情要做，因为我们可以把他的财产分给我们：至于房子，我们可以让他的母亲和娶她的男人拥有。

This was how they talked. But Telemachus went down into the lofty and spacious store-room where his father’s treasure of gold and bronze lay heaped up upon the floor, and where the linen and spare clothes were kept in open chests. Here, too, there was a store of fragrant olive oil, while casks of old, well-ripened wine, unblended and fit for a god to drink, were ranged against the wall in case Ulysses should come home again after all. The room was closed with well-made doors opening in the middle; moreover the faithful old house-keeper Euryclea, daughter of Ops the son of Pisenor, was in charge of everything both night and day. Telemachus called her to the store-room and said:
他们就是这样说话的。但特勒马科斯走进了高大宽敞的储藏室，他父亲的金子和青铜财宝堆放在地板上，亚麻布和换洗的衣服则存放在敞开的箱子里。这里也有一家芬芳的橄榄油店，而一桶桶陈年熟成的葡萄酒，未经混合，适合供神饮用，靠墙排列着，以防尤利西斯再次回家。房间是关着的，中间开着一扇做工精良的门。此外，忠诚的老女管家欧律克里亚（Euryclea），皮塞诺尔（Pisenor）之子奥普斯（Ops）的女儿，日夜负责一切事务。忒勒马科斯把她叫到储藏室，说道：

‘Nurse, draw me off some of the best wine you have, after what you are keeping for my father’s own drinking, in case, poor man, he should escape death, and find his way home again after all. Let me have twelve jars, and see that they all have lids; also fill me some well-sewn leathern bags with barley meal—about twenty measures in all. Get these things put together at once, and say nothing about it. I will take everything away this evening as soon as my mother has gone upstairs for the night. I am going to Sparta and to Pylos to see if I can hear anything about the return of my dear father.’
“嬷嬷，在你为我父亲自己留着喝的酒之后，给我倒一些最好的酒，以防可怜的人，他应该逃脱死亡，并再次找到回家的路。让我有十二个罐子，看看它们都有盖子；又给我装了一些缝制好的皮袋，里面装满了大麦粉，总共大约二十斤。把这些东西一下子凑到一起，什么也不说。今晚等我妈妈上楼过夜我就会把所有东西都拿走。我要去斯巴达和皮洛斯，看看是否能听到有关我亲爱的父亲回来的消息。

When Euryclea heard this she began to cry, and spoke fondly to him, saying, ‘My dear child, what ever can have put such notion as that into your head? Where in the world do you want to go to—you, who are the one hope of the house? Your poor father is dead and gone in some foreign country nobody knows where, and as soon as your back is turned these wicked ones here will be scheming to get you put out of the way, and will share all your possessions among themselves; stay where you are among your own people, and do not go wandering and worrying your life out on the barren ocean.’
尤里克利听了这话，哭了起来，深情地对他说：“我亲爱的孩子，是什么让你产生这样的想法呢？”你想去世界上的哪个地方——你，你是这个房子唯一的希望？你可怜的父亲死了，去了某个陌生的国家，没有人知道在哪里，一旦你转身，这些邪恶的人就会密谋把你赶走，并分享你所有的财产；留在你自己的人民中，不要在荒芜的海洋上徘徊并担心你的生活。

‘Fear not, nurse,’ answered Telemachus, ‘my scheme is not without heaven’s sanction; but swear that you will say nothing about all this to my mother, till I have been away some ten or twelve days, unless she hears of my having gone, and asks you; for I do not want her to spoil her beauty by crying.’
“别害怕，护士，”忒勒马科斯回答道，“我的计划并非没有上天的认可；但我发誓，在我离开十天或十二天之前，你不会把这一切告诉我母亲，除非她听说我走了，并询问你；因为我不想让她因哭泣而破坏她的美丽。

The old woman swore most solemnly that she would not, and when she had completed her oath, she began drawing off the wine into jars, and getting the barley meal into the bags, while Telemachus went back to the suitors.
老妇人郑重地发誓她不会，当她完成誓言后，她开始把酒装进罐子里，把大麦粉装进袋子里，而特勒马科斯则回到求婚者那里。

Then Minerva bethought her of another matter. She took his shape, and went round the town to each one of the crew, telling them to meet at the ship by sundown. She went also to Noemon son of Phronius, and asked him to let her have a ship—which he was very ready to do. When the sun had set and darkness was over all the land, she got the ship into the water, put all the tackle on board her that ships generally carry, and stationed her at the end of the harbour. Presently the crew came up, and the goddess spoke encouragingly to each of them.
然后米勒娃想到了另一件事。她化作了他的形状，绕城去找每一位船员，告诉他们日落前在船上见面。她还去找弗洛尼乌斯的儿子诺蒙，请求他给她一艘船——他已经准备好了。当太阳落山，黑暗笼罩大地时，她把船驶入水中，把船上通常携带的所有渔具都装到船上，并将她停泊在港口的尽头。不久，船员们都上来了，女神对他们每个人都说了鼓励的话。

Furthermore she went to the house of Ulysses, and threw the suitors into a deep slumber. She caused their drink to fuddle them, and made them drop their cups from their hands, so that instead of sitting over their wine, they went back into the town to sleep, with their eyes heavy and full of drowsiness. Then she took the form and voice of Mentor, and called Telemachus to come outside.
此外，她还去了尤利西斯的家，让求婚者们陷入了沉睡。她让他们喝得酩酊大醉，还让他们放下手中的杯子，这样他们就不再坐在酒上，而是回到城里睡觉了，眼睛沉重，充满了睡意。然后她化身为导师，并以导师的声音呼唤忒勒马科斯到外面去。

‘Telemachus,’ said she, ‘the men are on board and at their oars, waiting for you to give your orders, so make haste and let us be off.’
“忒勒马科斯，”她说，“人们都在船上，在划桨，等着你下达命令，所以赶快让我们出发吧。”

On this she led the way, while Telemachus followed in her steps. When they got to the ship they found the crew waiting by the water side, and Telemachus said, ‘Now my men, help me to get the stores on board; they are all put together in the cloister, and my mother does not know anything about it, nor any of the maid servants except one.’
在这方面，她带路，而忒勒马科斯紧随其后。当他们到达船上时，他们发现船员们正在水边等候，忒勒马科斯说：“现在，我的伙计们，帮我把物资搬上船；他们都放在修道院里，我母亲对此一无所知，除了一个女仆外，其他女仆也不知道。

[...]
{125}参见《奥德赛》的女作者，第 140, 141 页。将特勒马科斯送到皮洛斯和拉栖代梦的真正原因是女作者可能会将特洛伊的海伦纳入她的诗中。他是在故事中唯一可以派他去的地方被派去的，所以他当时一定已经去了，或者根本就没有去。

{126} The site I assign to Eumaeus’s hut, close to the Ruccazzu dei Corvi, is about 2,000 feet above the sea, and commands an extensive view.
{126} 我指定给 Eumaeus 小屋的地点靠近 Ruccazzu dei Corvi，海拔约 2,000 英尺，视野开阔。

{127} Sandals such as Eumaeus was making are still worn in the Abruzzi and elsewhere. An oblong piece of leather forms the sole: holes are cut at the four corners, and through these holes leathern straps are passed, which are bound round the foot and cross-gartered up the calf.
{127} 阿布鲁齐和其他地方仍然穿着 Eumaeus 制作的凉鞋。鞋底由一块长方形皮革制成：四个角处切有孔，皮革带穿过这些孔，将脚绑在脚上并交叉绑在小腿上。

{128} See note {75}
{128} 请参阅注释{75}

{129} Telemachus like many another good young man seems to expect every one to fetch and carry for him.
{129} 像许多其他优秀的年轻人一样，特勒马科斯似乎期望每个人都为他取来并携带。

{130} ‘Il.’ vi. 288. The store room was fragrant because it was made of cedar wood. See ‘Il.’ xxiv. 192.
{130}“伊尔。”vi。 288. 储藏室是香柏木做的，所以很香。见“伊尔”二十四。 192.

{131} cf. ‘Il.’ vi. 289 and 293-296. The dress was kept at the bottom of the chest as one that would only be wanted on the greatest occasions; but surely the marriage of Hermione and of Megapenthes (bk, iv. ad init.) might have induced Helen to wear it on the preceding evening, in which case it could hardly have got back. We find no hint here of Megapenthes’ recent marriage.
{131} 参见。 “伊尔。”vi。 289和293-296。这件衣服被放在胸前，只有在最重要的场合才需要。但可以肯定的是，赫敏和梅加彭特斯的婚姻（bk，iv. ad init.）可能会促使海伦在前一天晚上戴上它，在这种情况下，它几乎不可能回来。我们在这里没有发现梅加彭特斯最近结婚的迹象。

{132} See note {83}.
{132} 请参阅注释{83}。

{133} cf. ‘Od.’ xi. 196, etc.
{133} 参见。 “哦。”xi。 196等

{134} The names Syra and Ortygia, on which island a great part of the Doric Syracuse was originally built, suggest that even in Odyssean times there was a prehistoric Syracuse, the existence of which was known to the writer of the poem.
{134} 多立克式锡拉丘兹的大部分最初建在这两个岛上，这两个名字表明，即使在奥德修斯时代，也有一个史前锡拉丘兹，这首诗的作者就知道它的存在。

{135} Literally ‘where are the turnings of the sun.’ Assuming, as we may safely do, that the Syra and Ortygia of the ‘Odyssey’ refer to Syracuse, it is the fact that not far to the South of these places the land turns sharply round, so that mariners following the coast would find the sun upon the other side of their ship to that on which they’d had it hitherto.
{135} 字面意思是“太阳在哪里转动。”我们可以放心地假设，《奥德赛》中的锡拉和奥提伽指的是锡拉丘兹，事实是，在这些地方以南不远的地方，陆地急剧转向，因此沿着海岸航行的水手会发现太阳在他们的船的另一侧，与他们迄今为止所看到的不同。

Mr. A. S. Griffith has kindly called my attention to Herod iv. 42, where, speaking of the circumnavigation of Africa by Phoenician mariners under Necos, he writes:
A.S.格里菲斯先生善意地提请我注意希律四世。 42，在谈到内科斯带领下的腓尼基水手环游非洲时，他写道：

‘On their return they declared—I for my part do not believe them, but perhaps others may—that in sailing round Libya [i.e. Africa] they had the sun upon their right hand. In this way was the extent of Libya first discovered.
“在他们返回时，他们宣称——我本人不相信他们，但也许其他人可能会——在绕利比亚航行时[即。非洲]他们的右手边有太阳。利比亚的疆域就是这样首次被发现的。

I take it that Eumaeus was made to have come from Syracuse because the writer thought she rather ought to have made something happen at Syracuse during her account of the voyages of Ulysses. She could not, however, break his long drift from Charybdis to the island of Pantellaria; she therefore resolved to make it up to Syracuse in another way.
我认为尤迈厄斯之所以来自锡拉丘兹，是因为作者认为她在描述尤利西斯的航行期间应该在锡拉丘兹发生一些事情。然而，她无法阻止他从卡律布狄斯到潘特拉里亚岛的长途漂流。因此，她决定以另一种方式弥补回到锡拉丘兹的遗憾。

{135} Modern excavations establish the existence of two and only two pre-Dorian communities at Syracuse; they were, so Dr. Orsi informed me, at Plemmirio and Cozzo Pantano. See The Authoress of the Odyssey, pp. 211-213.
{135} 现代发掘证实锡拉丘兹存在两个且仅有两个前多利安社区；奥尔西博士告诉我，他们是在 Plemmirio 和 Cozzo Pantano。参见《奥德赛的女作者》，第 211-213 页。

{136} This harbour is again evidently the harbour in which Ulysses had landed, i.e. the harbour that is now the salt works of S. Cusumano.
{136}这个港口显然又是尤利西斯登陆的港口，即现在是S.库苏马诺盐场的港口。

{137} This never can have been anything but very niggardly pay for some eight or nine days’ service. I suppose the crew were to consider the pleasure of having had a trip to Pylos as a set off. There is no trace of the dinner as having been actually given, either on the following or any other morning.
{137} 这只不过是为八九天的服务支付的非常微薄的费用。我想船员们会考虑以去皮洛斯旅行为出发点的乐趣。无论是在第二天还是在其他任何一个早晨，都没有晚餐实际进行过的痕迹。

{138} No hawk can tear its prey while it is on the wing.
{138} 鹰在飞行时无法撕裂猎物。

{139} The text is here apparently corrupt, and will not make sense as it stands. I follow Messrs. Butcher and Lang in omitting line 101.
{139} 此处的文本显然已损坏，而且按其原样没有任何意义。我跟随 Butcher 和 Lang 先生省略了第 101 行。

{140} i.e. to be milked, as in South Italian and Sicilian towns at the present day.
{140} 即挤奶，就像当今意大利南部和西西里的城镇一样。

{141} The butchering and making ready the carcases took place partly in the outer yard and partly in the open part of the inner court.
{141} 屠宰和准备尸体的工作部分在外院进行，部分在内院的露天区域进行。

{142} These words cannot mean that it would be afternoon soon after they were spoken. Ulysses and Eumaeus reached the town which was ‘some way off’ (xvii. 25) in time for the suitor’s early meal (xvii. 170 and 176) say at ten or eleven o’ clock. The context of the rest of the book shows this. Eumaeus and Ulysses, therefore, cannot have started later than eight or nine, and Eumaeus’s words must be taken as an exaggeration for the purpose of making Ulysses bestir himself.
{142} 这句话并不意味着说完之后不久就到了下午。尤利西斯和尤迈厄斯到达了“有些远”的城镇（第十七章第 25 章），正好赶上求婚者的早饭（第十七章第 170 章和第 176 章），比如说十点或十一点钟。本书其余部分的上下文表明了这一点。因此，尤迈厄斯和尤利西斯不可能晚于八点或九点开始行动，而尤迈厄斯的话必须被视为夸大其词，目的是为了让尤利西斯激动起来。

{143} I imagine the fountain to have been somewhere about where the church of the Madonna di Trapani now stands, and to have been fed with water from what is now called the Fontana Diffali on Mt. Eryx.
{143} 我想象喷泉位于现在特拉帕尼圣母教堂附近的某个地方，其水源来自现在埃里克斯山上的迪法利喷泉。

{144} From this and other passages in the ‘Odyssey’ it appears that we are in an age anterior to the use of coined money—an age when cauldrons, tripods, swords, cattle, chattels of all kinds, measures of corn, wine, or oil, etc. etc., not to say pieces of gold, silver, bronze, or even iron, wrought more or less, but unstamped, were the nearest approach to a currency that had as yet been reached.
{144} 从《奥德赛》中的这段和其他段落来看，我们似乎处于使用铸币之前的时代，在这个时代，大锅、三脚架、剑、牛、各种动产、谷物、酒，或石油等，更不用说金，银，青铜，甚至铁片，或多或少经过锻造，但未加盖印章，是迄今为止最接近的货币。

{145} Gr. is [Greek]
{145} 克是[希腊语]

{146} I correct these proofs abroad and am not within reach of Hesiod, but surely this passage suggests acquaintance with the Works and Ways, though it by no means compels it.
{146}我在国外纠正了这些证明，并且不在赫西奥德的范围内，但是这段文字无疑表明了对作品和道路的熟悉，尽管它绝不强制这样做。

{147} It would seem as though Eurynome and Euryclea were the same person. See note {156}
{147} 欧律诺墨 (Eurynome) 和欧律克里亚 (Euryclea) 似乎是同一个人。请参阅注释{156}

{148} It is plain, therefore, that Iris was commonly accepted as the messenger of the gods, though our authoress will never permit her to fetch or carry for any one.
{148} 因此，很明显，艾丽丝被普遍认为是众神的使者，尽管我们的女作者永远不会允许她为任何人取来或携带。

{149} i.e. the doorway leading from the inner to the outer court.
{149}即从内院通往外院的门口。

{150} Surely in this scene, again, Eurynome is in reality Euryclea. See note {156}
{150}当然，在这个场景中，欧律诺墨实际上就是欧律克里亚。请参阅注释{156}

{151} These, I imagine, must have been in the open part of the inner courtyard, where the maids also stood, and threw the light of their torches into the covered cloister that ran all round it. The smoke would otherwise have been intolerable.
{151}我想，这些一定是在内院的露天部分，女仆们也站在那里，将火把的光投进周围有遮盖的回廊。否则，烟雾将令人难以忍受。

{152} Translation very uncertain; vide Liddell and Scott, under [Greek]
{152} 翻译非常不确定；参见 Liddell 和 Scott，在 [希腊语] 下

{153} See photo on opposite page.
{153} 请参阅对页上的照片。

{154} cf. ‘Il.’ ii. 184, and 217, 218. An additional and well-marked feature being wanted to convince Penelope, the writer has taken the hunched shoulders of Thersites (who is mentioned immediately after Eurybates in the ‘Iliad’) and put them on to Eurybates’ back.
{154} 参见。 “伊尔。”ii。 184、217、218。为了说服佩内洛普，作者还添加了一个明显的特征，即把泰尔西忒斯（Thersites）驼背的肩膀（在《伊利亚特》中在欧律巴特斯之后立即提到）并把它们放在欧律巴特斯的背上。 。

{155} This is how geese are now fed in Sicily, at any rate in summer, when the grass is all burnt up. I have never seen them grazing.
{155} 这就是西西里岛现在喂鹅的方式，至少在夏天，草都烧光了。我从未见过它们吃草。

{156} Lower down (line 143) Euryclea says it was herself that had thrown the cloak over Ulysses—for the plural should not be taken as implying more than one person. The writer is evidently still fluctuating between Euryclea and Eurynome as the name for the old nurse. She probably originally meant to call her Euryclea, but finding it not immediately easy to make Euryclea scan in xvii. 495, she hastily called her Eurynome, intending either to alter this name later or to change the earlier Euryclea’s into Eurynome. She then drifted in to Eurynome as convenience further directed, still nevertheless hankering after Euryclea, till at last she found that the path of least resistance would lie in the direction of making Eurynome and Euryclea two persons. Therefore in xxiii. 289-292 both Eurynome and ‘the nurse’ (who can be none other than Euryclea) come on together. I do not say that this is feminine, but it is not unfeminine.
{156}往下看（第143行）尤里克利说是她自己给《尤利西斯》披上了斗篷——因为复数不应被视为暗示不止一个人。作者显然仍在Euryclea 和Eurynome 之间徘徊，作为老护士的名字。她最初可能打算叫她欧律克里亚，但发现在第十七章中让欧律克里亚扫描并不容易。 495，她急忙给她起名叫Eurynome，打算要么以后改这个名字，要么把之前的Euryclea改成Eurynome。然后，她按照进一步方便的指示，漂流到欧律诺墨，尽管如此，她仍然渴望欧律克里亚，直到最后她发现阻力最小的道路将是使欧律诺墨和欧律克里亚成为两个人。因此在二十三。 289-292 欧律诺墨和“护士”（不是别人，正是欧律克莉亚）同时出现。我并不是说这是女性化的，但也并非不女性化。

{157} See note {156}
{157} 请参阅注释{156}

{158} This, I take it, was immediately in front of the main entrance of the inner courtyard into the body of the house.
{158} 我认为，这就位于进入房屋主体的内院正门前面。

{159} This is the only allusion to Sardinia in either ‘Iliad’ or ‘Odyssey.’
{159} 这是《伊利亚特》或《奥德赛》中唯一提及撒丁岛的地方。

{160} The normal translation of the Greek word would be ‘holding back,’ ‘curbing,’ ‘restraining,’ but I cannot think that the writer meant this—she must have been using the word in its other sense of ‘having,’ ‘holding,’ ‘keeping,’ ‘maintaining.’
{160}这个希腊词的正常翻译是“阻止”、“遏制”、“限制”，但我不认为作者的意思是这个——她一定是在“拥有、 ”“持有”、“保持”、“维持”。

{161} I have vainly tried to realise the construction of the fastening here described.
{161}我徒劳地尝试实现此处描述的紧固结构。

{162} See plan of Ulysses’ house in the appendix. It is evident that the open part of the court had no flooring but the natural soil.
{162} 请参阅附录中的尤利西斯之家平面图。显然，球场的开放部分没有地板，只有天然土壤。

{163} See plan of Ulysses’ house, and note {175}.
{163}参见尤利西斯之家的平面图，并注意{175}。

{164} i.e. the door that led into the body of the house.
{164} 即通向房屋主体的门。

{165} This was, no doubt, the little table that was set for Ulysses, ‘Od.’ xx. 259.
{165}毫无疑问，这是为《尤利西斯》“Od.”xx 设置的小桌子。 259.

Surely the difficulty of this passage has been overrated. I suppose the iron part of the axe to have been wedged into the handle, or bound securely to it—the handle being half buried in the ground. The axe would be placed edgeways towards the archer, and he would have to shoot his arrow through the hole into which the handle was fitted when the axe was in use. Twelve axes were placed in a row all at the same height, all exactly in front of one another, all edgeways to Ulysses whose arrow passed through all the holes from the first onward. I cannot see how the Greek can bear any other interpretation, the words being, [Greek]
当然，这段经文的难度被高估了。我猜想斧头的铁部分已经楔入手柄中，或者牢固地固定在手柄上——手柄一半埋在地下。斧头会被放置在朝向弓箭手的边缘，当使用斧头时，他必须将箭射入装有手柄的孔中。十二把斧子排成一排，高度都一样，都在彼此的正前方，都向尤利西斯倾斜，尤利西斯的箭从第一个洞开始穿过所有的洞。我看不出希腊语怎么能忍受任何其他解释，这个词是，[希腊语]

‘He did not miss a single hole from the first onwards.’ [Greek] according to Liddell and Scott being ‘the hole for the handle of an axe, etc.,’ while [Greek] (“Od.’ v. 236) is, according to the same authorities, the handle itself. The feat is absurdly impossible, but our authoress sometimes has a soul above impossibilities.
“从一开始他就没有错过任何一个洞。”[希腊语]根据 Liddell 和 Scott 的说法是“斧头等手柄的洞”，而[希腊语]（“Od.” v. 236）根据同一机构的说法，是手柄本身。这一壮举是荒谬的不可能的，但我们的女作家有时拥有超越不可能的灵魂。

{166} The reader will note how the spoiling of good food distresses the writer even in such a supreme moment as this.
{166} 读者会注意到，即使在这样一个至高无上的时刻，美味佳肴的变质也让作者感到多么痛苦。

{167} Here we have it again. Waste of substance comes first.
{167} 又来了。物质浪费是第一位的。

{168} cf. ‘Il.’ iii. 337 and three other places. It is strange that the author of the ‘Iliad’ should find a little horse-hair so alarming. Possibly enough she was merely borrowing a common form line from some earlier poet—or poetess—for this is a woman’s line rather than a man’s.
{168} 参见。 “伊尔。” iii． 337和其他三个地方。奇怪的是，《伊利亚特》的作者居然发现一根小马毛如此令人震惊。很可能她只是借用了一些早期诗人（或女诗人）的常见诗句，因为这是女性的诗句，而不是男性的诗句。

{169} Or perhaps simply ‘window.’ See plan in the appendix.
{169} 或者简称为“窗口”。请参阅附录中的计划。

{170} i.e. the pavement on which Ulysses was standing.
{170} 即尤利西斯站立的人行道。

{171} The interpretation of lines 126-143 is most dubious, and at best we are in a region of melodrama: cf., however, i.425, etc. from which it appears that there was a tower in the outer court, and that Telemachus used to sleep in it. The [Greek] I take to be a door, or trap door, leading on to the roof above Telemachus’s bed room, which we are told was in a place that could be seen from all round—or it might be simply a window in Telemachus’s room looking out into the street. From the top of the tower the outer world was to be told what was going on, but people could not get in by the [Greek]: they would have to come in by the main entrance, and Melanthius explains that the mouth of the narrow passage (which was in the lands of Ulysses and his friends) commanded the only entrance by which help could come, so that there would be nothing gained by raising an alarm. As for the [Greek] of line 143, no commentator ancient or modern has been able to say what was intended—but whatever they were, Melanthius could never carry twelve shields, twelve helmets, and twelve spears. Moreover, where he could go the others could go also. If a dozen suitors had followed Melanthius into the house they could have attacked Ulysses in the rear, in which case, unless Minerva had intervened promptly, the ‘Odyssey’ would have had a different ending. But throughout the scene we are in a region of extravagance rather than of true fiction—it cannot be taken seriously by any but the very serious, until we come to the episode of Phemius and Medon, where the writer begins to be at home again.
{171} 第 126-143 行的解释是最可疑的，充其量我们处于一个情节剧的区域：然而，参见 i.425 等，从中看来外院有一座塔楼，忒勒马科斯曾经睡在里面。我认为这个[希腊语]是一扇门，或者说活板门，通向特勒马科斯卧室上方的屋顶，我们被告知那是在一个可以从四面八方看到的地方——或者它可能只是特勒马科斯卧室的一扇窗户。房间望向街道。从塔顶向外部世界通报正在发生的事情，但人们无法通过[希腊]进入：他们必须从主入口进入，梅兰修斯解释说，狭窄的入口通道（位于尤利西斯和他的朋友们的土地上）控制着救援的唯一入口，因此发出警报不会有任何收获。至于第 143 行的[希腊语]，古代或现代的评论家都无法说出其意图，但无论它们是什么，梅兰修斯永远无法携带十二面盾牌、十二面头盔和十二面矛。而且，他能去的地方，其他人也可以去。如果十几个追求者跟随梅兰修斯进入屋内，他们可能会从后方袭击尤利西斯，这种情况下，除非密涅瓦及时介入，否则“奥德赛”将会有不同的结局。但在整个场景中，我们处于一个奢侈的区域，而不是真正的虚构——除了非常严肃的人之外，任何人都不能认真对待它，直到我们来到《菲米乌斯和梅东》的那一集，在那里，作家又开始感到宾至如归了。

{172} I presume it was intended that there should be a hook driven into the bearing-post.
{172}我认为应该有一个钩子插入轴承柱中。

{173} What for?
{173}有什么用？

{174} Gr: [Greek]. This is not [Greek].
{174} Gr：[希腊语]。这不是[希腊语]。

{175} From lines 333 and 341 of this book, and lines 145 and 146 of bk. xxi we can locate the approach to the [Greek] with some certainty.
{175}摘自本书第 333 和 341 行，以及 bk 的第 145 和 146 行。 xxi 我们可以确定地找到通往[希腊语]的途径。

{176} But in xix. 500-502 Ulysses scolded Euryclea for offering information on this very point, and declared himself quite able to settle it for himself.
{176}但在十九年。 500-502 尤利西斯责备欧律克里亚在这一点上提供了信息，并宣称自己完全有能力解决这个问题。

{177} There were a hundred and eight Suitors.
{177} 有一百零八名追求者。

{178} Lord Grimthorpe, whose understanding does not lend itself to easy imposition, has been good enough to write to me about my conviction that the ‘Odyssey’ was written by a woman, and to send me remarks upon the gross absurdity of the incident here recorded. It is plain that all the authoress cared about was that the women should be hanged: as for attempting to realise, or to make her readers realise, how the hanging was done, this was of no consequence. The reader must take her word for it and ask no questions. Lord Grimthorpe wrote:
{178} 格里姆索普勋爵的理解力不适合轻易强加，他足够好地写信给我，讲述了我对《奥德赛》是由一位女性所写的信念，并向我发送了对这一事件的严重荒谬的评论这里记录了。显然，女作者所关心的只是这些妇女应该被绞死：至于试图了解，或者让她的读者了解绞刑是如何进行的，这并不重要。读者必须相信她的话，不要提出任何问题。格里姆索普勋爵写道：

‘I had better send you my ideas about Nausicaa’s hanging of the maids (not ‘maidens,’ of whom Fronde wrote so well in his ‘Science of History’) before I forget it all. Luckily for me Liddell & Scott have specially translated most of the doubtful words, referring to this very place.
“在我把这一切都忘记之前，我最好把我对娜乌西卡绞死女仆（不是‘少女’，弗隆德在他的《历史科学》中写得很好）的想法告诉你。对我来说幸运的是，利德尔和斯科特专门翻译了大部分可疑的词语，指的是这个地方。

‘A ship’s cable. I don’t know how big a ship she meant, but it must have been a very small one indeed if its ‘cable’ could be used to tie tightly round a woman’s neck, and still more round a dozen of them ‘in a row,’ besides being strong enough to hold them and pull them all up.
“一条船的电缆。我不知道她说的船有多大，但如果它的“缆绳”能用来紧紧地套住一个女人的脖子，更何况是“排成一排”的十几艘船，那它一定是一艘很小的船。 ”，除了足够强大的力量来支撑它们并将它们全部拉起来。

‘A dozen average women would need the weight and strength of more than a dozen strong heavy men even over the best pulley hung to the roof over them; and the idea of pulling them up by a rope hung anyhow round a pillar [Greek] is absurdly impossible; and how a dozen of them could be hung dangling round one post is a problem which a senior wrangler would be puzzled to answer … She had better have let Telemachus use his sword as he had intended till she changed his mind for him.’
“十几个普通女人需要十多个强壮的大男人的体重和力量，即使是在屋顶上悬挂的最好的滑轮上；用一根挂在柱子（希腊语）上的绳子把它们拉起来的想法是荒谬的不可能的； “如何将十几把剑悬挂在一根柱子上，这是一个高级牧马人会困惑地回答的问题……她最好让特勒马科斯按照他的意图使用他的剑，直到她改变主意为止。”

{179} Then they had all been in Ulysses’ service over twenty years; perhaps the twelve guilty ones had been engaged more recently.
{179}然后他们都为尤利西斯服务了二十多年；也许那十二个有罪的人是最近才订婚的。

{180} Translation very doubtful—cf. ‘It.’ xxiv. 598.
{180}翻译非常值得怀疑——参见。 “它。”二十四。 598.

{181} But why could she not at once ask to see the scar, of which Euryclea had told her, or why could not Ulysses have shown it to her?
{181}但是为什么她不能立即要求查看尤里克利告诉她的伤疤，或者为什么尤利西斯不能向她展示它？

{182} The people of Ithaca seem to have been as fond of carping as the Phaeacians were in vi. 273, etc.
{182} 伊萨卡人民似乎像 vi 中的斐埃基人一样喜欢吹毛求疵。 273等

{183} See note {156}. Ulysses’s bed room does not appear to have been upstairs, nor yet quite within the house. Is it possible that it was ‘the domed room’ round the outside of which the erring maids were, for aught we have heard to the contrary, still hanging?
{183} 请参阅注释{156}。尤利西斯的卧室似乎不在楼上，也不在房子内。有没有可能这就是“圆顶房间”，那些犯错的女仆仍然悬在外面，尽管我们听说的情况与此相反？

{184} Ulysses bedroom in the mind of the writer is here too apparently down stairs.
{184} 作者心目中的《尤利西斯》卧室显然就在楼下。

{185} Penelope having been now sufficiently whitewashed, disappears from the poem.
{185}佩内洛普现在已被充分粉饰，从诗中消失了。

{186} So practised a washerwoman as our authoress doubtless knew that by this time the web must have become such a wreck that it would have gone to pieces in the wash.
{186}一位洗衣妇如此熟练，我们的女作者无疑知道，此时网络一定已经变得如此破烂，以至于在洗涤过程中会变成碎片。

A lady points out to me, just as these sheets are leaving my hands, that no really good needlewoman—no one, indeed, whose work or character was worth consideration—could have endured, no matter for what reason, the unpicking of her day’s work, day after day for between three and four years.
就在这些床单离开我的手时，一位女士向我指出，没有一个真正优秀的女裁缝——事实上，没有一个人的工作或性格值得考虑——无论出于什么原因，都无法忍受她当天的衣服被拆开。日复一日地工作，持续三四年。

{187} We must suppose Dolius not yet to know that his son Melanthius had been tortured, mutilated, and left to die by Ulysses’ orders on the preceding day, and that his daughter Melantho had been hanged. Dolius was probably exceptionally simple-minded, and his name was ironical. So on Mt. Eryx I was shown a man who was always called Sonza Malizia or ‘Guileless’—he being held exceptionally cunning.
{187}我们必须假设多利乌斯还不知道他的儿子梅兰修斯在前一天被尤利西斯的命令折磨、残害并被处死，而他的女儿梅兰修斯已被绞死。多利乌斯大概是个头脑特别简单的人，而且他的名字也颇具讽刺意味。因此，在埃里克斯山上，我看到了一个总是被称为桑扎·马利齐亚（Sonza Malizia）或“无知”的人——他异常狡猾。